@<TRIPOS>MOLECULE
UNL
   57    59     1     0     0
SMALL
bcc


@<TRIPOS>ATOM
      1 O1          -4.5570     1.7400     3.3690 o          1 UNL      -0.553000
      2 C1          -4.5800     1.3330     2.2220 c          1 UNL       0.651700
      3 O2          -5.7190     1.3260     1.5080 oh         1 UNL      -0.607100
      4 C2          -3.4200     0.8040     1.4650 ca         1 UNL      -0.135600
      5 C3          -3.5400     0.3490     0.1470 ca         1 UNL      -0.060500
      6 C4          -2.4230    -0.1420    -0.5440 cp         1 UNL      -0.050000
      7 C5          -2.5410    -0.6250    -1.9280 cp         1 UNL      -0.040000
      8 C6          -1.7770    -0.0580    -2.9580 ca         1 UNL      -0.117000
      9 C7          -1.8790    -0.5260    -4.2720 ca         1 UNL      -0.117000
     10 C8          -2.7370    -1.5850    -4.5910 ca         1 UNL      -0.100800
     11 C9          -2.8840    -2.0890    -6.0060 c3         1 UNL       0.172200
     12 O3          -1.6710    -1.8940    -6.7340 os         1 UNL      -0.428100
     13 C10         -1.7840    -2.3730    -8.0800 c3         1 UNL       0.080900
     14 C11         -0.4460    -2.1340    -8.7690 c3         1 UNL       0.117400
     15 O4           0.5770    -2.8630    -8.0920 oh         1 UNL      -0.598300
     16 C12         -3.5160    -2.1430    -3.5690 ca         1 UNL      -0.117000
     17 C13         -3.4170    -1.6710    -2.2560 ca         1 UNL      -0.117000
     18 C14         -1.1840    -0.1680     0.1220 ca         1 UNL      -0.076000
     19 C15         -1.0370     0.2800     1.4470 cp         1 UNL      -0.050000
     20 C16          0.2720     0.2280     2.1230 cp         1 UNL      -0.040000
     21 C17          0.4150    -0.3780     3.3810 ca         1 UNL      -0.117000
     22 C18          1.6590    -0.4420     4.0190 ca         1 UNL      -0.117000
     23 C19          2.7950     0.1100     3.4160 ca         1 UNL      -0.100800
     24 C20          4.1430     0.0090     4.0880 c3         1 UNL       0.172200
     25 O5           4.8880     1.2240     3.9730 os         1 UNL      -0.428100
     26 C21          4.5140     2.2220     4.9320 c3         1 UNL       0.080900
     27 C22          5.2940     2.0190     6.2290 c3         1 UNL       0.117400
     28 O6           6.6960     2.0580     5.9640 oh         1 UNL      -0.598300
     29 C23          2.6640     0.7080     2.1570 ca         1 UNL      -0.117000
     30 C24          1.4190     0.7700     1.5230 ca         1 UNL      -0.117000
     31 C25         -2.1740     0.7680     2.1060 ca         1 UNL      -0.060500
     32 H1          -6.3840     1.7020     2.1230 ho         1 UNL       0.448000
     33 H2          -4.5050     0.3850    -0.3540 ha         1 UNL       0.161000
     34 H3          -1.0980     0.7650    -2.7460 ha         1 UNL       0.137250
     35 H4          -1.2760    -0.0580    -5.0470 ha         1 UNL       0.142250
     36 H5          -3.1160    -3.1600    -5.9940 h1         1 UNL       0.049950
     37 H6          -3.7010    -1.5450    -6.4940 h1         1 UNL       0.049950
     38 H7          -2.0080    -3.4460    -8.0580 h1         1 UNL       0.052450
     39 H8          -2.5840    -1.8360    -8.6020 h1         1 UNL       0.052450
     40 H9          -0.1720    -1.0750    -8.7390 h1         1 UNL       0.050450
     41 H10         -0.4760    -2.4670    -9.8090 h1         1 UNL       0.050450
     42 H11          0.4470    -2.6650    -7.1440 ho         1 UNL       0.412000
     43 H12         -4.2050    -2.9570    -3.7850 ha         1 UNL       0.142250
     44 H13         -4.0230    -2.1390    -1.4820 ha         1 UNL       0.137250
     45 H14         -0.3160    -0.5730    -0.4000 ha         1 UNL       0.146000
     46 H15         -0.4460    -0.8280     3.8720 ha         1 UNL       0.137250
     47 H16          1.7300    -0.9340     4.9860 ha         1 UNL       0.142250
     48 H17          4.7170    -0.7760     3.5820 h1         1 UNL       0.049950
     49 H18          4.0500    -0.2850     5.1400 h1         1 UNL       0.049950
     50 H19          4.7980     3.1850     4.4920 h1         1 UNL       0.052450
     51 H20          3.4330     2.2310     5.1060 h1         1 UNL       0.052450
     52 H21          5.0580     2.8060     6.9520 h1         1 UNL       0.050450
     53 H22          5.0730     1.0480     6.6830 h1         1 UNL       0.050450
     54 H23          6.8210     1.5960     5.1130 ho         1 UNL       0.412000
     55 H24          3.5360     1.1330     1.6630 ha         1 UNL       0.142250
     56 H25          1.3540     1.2540     0.5500 ha         1 UNL       0.137250
     57 H26         -2.0910     1.1350     3.1290 ha         1 UNL       0.161000
@<TRIPOS>BOND
     1     1     2 2   
     2     2     3 1   
     3     2     4 1   
     4     3    32 1   
     5     4     5 ar  
     6     4    31 ar  
     7     5     6 ar  
     8     5    33 1   
     9     6     7 1   
    10     6    18 ar  
    11     7     8 ar  
    12     7    17 ar  
    13     8     9 ar  
    14     8    34 1   
    15     9    10 ar  
    16     9    35 1   
    17    10    11 1   
    18    10    16 ar  
    19    11    12 1   
    20    11    36 1   
    21    11    37 1   
    22    12    13 1   
    23    13    14 1   
    24    13    38 1   
    25    13    39 1   
    26    14    15 1   
    27    14    40 1   
    28    14    41 1   
    29    15    42 1   
    30    16    17 ar  
    31    16    43 1   
    32    17    44 1   
    33    18    19 ar  
    34    18    45 1   
    35    19    20 1   
    36    19    31 ar  
    37    20    21 ar  
    38    20    30 ar  
    39    21    22 ar  
    40    21    46 1   
    41    22    23 ar  
    42    22    47 1   
    43    23    24 1   
    44    23    29 ar  
    45    24    25 1   
    46    24    48 1   
    47    24    49 1   
    48    25    26 1   
    49    26    27 1   
    50    26    50 1   
    51    26    51 1   
    52    27    28 1   
    53    27    52 1   
    54    27    53 1   
    55    28    54 1   
    56    29    30 ar  
    57    29    55 1   
    58    30    56 1   
    59    31    57 1   
@<TRIPOS>SUBSTRUCTURE
     1 UNL         1 TEMP              0 ****  ****    0 ROOT
