@<TRIPOS>MOLECULE
UNL
   57    59     1     0     0
SMALL
bcc


@<TRIPOS>ATOM
      1 O1           0.9140    -5.0330     3.7940 o          1 UNL      -0.553000
      2 C1           1.6820    -4.2830     3.2210 c          1 UNL       0.651700
      3 O2           3.0130    -4.4590     3.2950 oh         1 UNL      -0.607100
      4 C2           1.3000    -3.1170     2.3890 ca         1 UNL      -0.135600
      5 C3          -0.0630    -2.8610     2.1980 ca         1 UNL      -0.060500
      6 C4          -0.4920    -1.7730     1.4230 cp         1 UNL      -0.049000
      7 C5          -1.9250    -1.5030     1.2190 cp         1 UNL      -0.041500
      8 C6          -2.4540    -1.3270    -0.0690 ca         1 UNL      -0.117000
      9 C7          -3.8140    -1.0680    -0.2630 ca         1 UNL      -0.116750
     10 C8          -4.6860    -0.9680     0.8280 ca         1 UNL      -0.100300
     11 C9          -6.1590    -0.7230     0.6210 c3         1 UNL       0.175700
     12 O3          -6.3390     0.3310    -0.3250 os         1 UNL      -0.428100
     13 C10         -7.7270     0.5960    -0.5570 c3         1 UNL       0.103400
     14 C11         -7.8220     1.7420    -1.5590 c3         1 UNL       0.130400
     15 O4          -7.1910     2.9030    -1.0200 oh         1 UNL      -0.600300
     16 C12         -4.1700    -1.1530     2.1160 ca         1 UNL      -0.116750
     17 C13         -2.8080    -1.4130     2.3070 ca         1 UNL      -0.117000
     18 C14          0.4900    -0.9480     0.8450 ca         1 UNL      -0.077000
     19 C15          1.8670    -1.1810     1.0200 cp         1 UNL      -0.049000
     20 C16          2.8690    -0.2960     0.4030 cp         1 UNL      -0.041500
     21 C17          2.8180     1.0950     0.5860 ca         1 UNL      -0.117000
     22 C18          3.7670     1.9390    -0.0020 ca         1 UNL      -0.116750
     23 C19          4.7900     1.4110    -0.7960 ca         1 UNL      -0.100300
     24 C20          5.8250     2.3160    -1.4200 c3         1 UNL       0.175700
     25 O5           6.0240     2.0180    -2.8030 os         1 UNL      -0.428100
     26 C21          5.0230     2.6030    -3.6360 c3         1 UNL       0.103400
     27 C22          5.2860     2.2070    -5.0840 c3         1 UNL       0.130400
     28 O6           4.3180     2.8010    -5.9400 oh         1 UNL      -0.600300
     29 C23          4.8550     0.0250    -0.9770 ca         1 UNL      -0.116750
     30 C24          3.9060    -0.8160    -0.3880 ca         1 UNL      -0.117000
     31 C25          2.2560    -2.2800     1.8020 ca         1 UNL      -0.060500
     32 H1           3.1140    -5.2500     3.8650 ho         1 UNL       0.447000
     33 H2          -0.7990    -3.5260     2.6500 ha         1 UNL       0.161000
     34 H3          -1.8080    -1.4010    -0.9410 ha         1 UNL       0.138000
     35 H4          -4.1920    -0.9380    -1.2750 ha         1 UNL       0.141750
     36 H5          -6.6260    -1.6430     0.2510 h1         1 UNL       0.049700
     37 H6          -6.6340    -0.4370     1.5670 h1         1 UNL       0.049700
     38 H7          -8.1960     0.8870     0.3890 h1         1 UNL       0.043200
     39 H8          -8.2160    -0.2990    -0.9570 h1         1 UNL       0.043200
     40 H9          -7.3070     1.4900    -2.4910 h1         1 UNL       0.043950
     41 H10         -8.8650     1.9850    -1.7790 h1         1 UNL       0.043950
     42 H11         -6.3230     2.5930    -0.6930 ho         1 UNL       0.409000
     43 H12         -4.8210    -1.0920     2.9860 ha         1 UNL       0.141750
     44 H13         -2.4380    -1.5360     3.3230 ha         1 UNL       0.138000
     45 H14          0.1730    -0.0980     0.2390 ha         1 UNL       0.146000
     46 H15          2.0380     1.5360     1.2040 ha         1 UNL       0.138000
     47 H16          3.6950     3.0110     0.1670 ha         1 UNL       0.141750
     48 H17          6.7780     2.1480    -0.9060 h1         1 UNL       0.049700
     49 H18          5.5740     3.3760    -1.2940 h1         1 UNL       0.049700
     50 H19          5.0480     3.6950    -3.5410 h1         1 UNL       0.043200
     51 H20          4.0230     2.2650    -3.3390 h1         1 UNL       0.043200
     52 H21          6.2840     2.5320    -5.3940 h1         1 UNL       0.043950
     53 H22          5.2410     1.1180    -5.1940 h1         1 UNL       0.043950
     54 H23          4.5210     2.5010    -6.8430 ho         1 UNL       0.409000
     55 H24          5.6440    -0.4070    -1.5900 ha         1 UNL       0.141750
     56 H25          3.9770    -1.8870    -0.5640 ha         1 UNL       0.138000
     57 H26          3.3150    -2.4730     1.9620 ha         1 UNL       0.161000
@<TRIPOS>BOND
     1     1     2 2   
     2     2     3 1   
     3     2     4 1   
     4     3    32 1   
     5     4     5 ar  
     6     4    31 ar  
     7     5     6 ar  
     8     5    33 1   
     9     6     7 1   
    10     6    18 ar  
    11     7     8 ar  
    12     7    17 ar  
    13     8     9 ar  
    14     8    34 1   
    15     9    10 ar  
    16     9    35 1   
    17    10    11 1   
    18    10    16 ar  
    19    11    12 1   
    20    11    36 1   
    21    11    37 1   
    22    12    13 1   
    23    13    14 1   
    24    13    38 1   
    25    13    39 1   
    26    14    15 1   
    27    14    40 1   
    28    14    41 1   
    29    15    42 1   
    30    16    17 ar  
    31    16    43 1   
    32    17    44 1   
    33    18    19 ar  
    34    18    45 1   
    35    19    20 1   
    36    19    31 ar  
    37    20    21 ar  
    38    20    30 ar  
    39    21    22 ar  
    40    21    46 1   
    41    22    23 ar  
    42    22    47 1   
    43    23    24 1   
    44    23    29 ar  
    45    24    25 1   
    46    24    48 1   
    47    24    49 1   
    48    25    26 1   
    49    26    27 1   
    50    26    50 1   
    51    26    51 1   
    52    27    28 1   
    53    27    52 1   
    54    27    53 1   
    55    28    54 1   
    56    29    30 ar  
    57    29    55 1   
    58    30    56 1   
    59    31    57 1   
@<TRIPOS>SUBSTRUCTURE
     1 UNL         1 TEMP              0 ****  ****    0 ROOT
