@<TRIPOS>MOLECULE
UNL
   57    59     1     0     0
SMALL
bcc


@<TRIPOS>ATOM
      1 O1           1.1450    -4.7070     1.9340 o          1 UNL      -0.552000
      2 C1           0.4700    -4.2790     1.0170 c          1 UNL       0.651700
      3 O2          -0.3830    -5.0770     0.3500 oh         1 UNL      -0.607100
      4 C2           0.4790    -2.8870     0.5070 ca         1 UNL      -0.135600
      5 C3          -0.3430    -2.4800    -0.5510 ca         1 UNL      -0.060000
      6 C4          -0.3160    -1.1550    -1.0130 cp         1 UNL      -0.050500
      7 C5          -1.1770    -0.7230    -2.1270 cp         1 UNL      -0.039500
      8 C6          -2.0220     0.3910    -1.9990 ca         1 UNL      -0.117000
      9 C7          -2.8390     0.8020    -3.0560 ca         1 UNL      -0.118500
     10 C8          -2.8380     0.1050    -4.2710 ca         1 UNL      -0.117800
     11 C9          -3.7080     0.5610    -5.4170 c3         1 UNL       0.174700
     12 O3          -5.0550     0.7940    -5.0030 os         1 UNL      -0.430600
     13 C10         -5.8040    -0.4190    -4.8550 c3         1 UNL       0.079400
     14 C11         -7.2550    -0.0720    -4.5320 c3         1 UNL       0.132400
     15 O4          -7.9290     0.3690    -5.7110 oh         1 UNL      -0.598800
     16 C12         -1.9940    -1.0020    -4.4110 ca         1 UNL      -0.118500
     17 C13         -1.1780    -1.4110    -3.3510 ca         1 UNL      -0.117000
     18 C14          0.5590    -0.2510    -0.3830 ca         1 UNL      -0.077000
     19 C15          1.3940    -0.6340     0.6820 cp         1 UNL      -0.050500
     20 C16          2.3010     0.3350     1.3210 cp         1 UNL      -0.039500
     21 C17          1.8250     1.5640     1.8050 ca         1 UNL      -0.117000
     22 C18          2.6840     2.4840     2.4140 ca         1 UNL      -0.118500
     23 C19          4.0450     2.1960     2.5600 ca         1 UNL      -0.117800
     24 C20          4.9780     3.1920     3.2050 c3         1 UNL       0.174700
     25 O5           5.8170     2.5760     4.1850 os         1 UNL      -0.430600
     26 C21          5.1350     2.3600     5.4290 c3         1 UNL       0.079400
     27 C22          6.1100     1.6810     6.3850 c3         1 UNL       0.132400
     28 O6           7.2460     2.5220     6.5900 oh         1 UNL      -0.598800
     29 C23          4.5320     0.9780     2.0720 ca         1 UNL      -0.118500
     30 C24          3.6700     0.0590     1.4640 ca         1 UNL      -0.117000
     31 C25          1.3390    -1.9660     1.1160 ca         1 UNL      -0.060000
     32 H1          -0.2820    -5.9470     0.7890 ho         1 UNL       0.448000
     33 H2          -1.0210    -3.1940    -1.0150 ha         1 UNL       0.161000
     34 H3          -2.0590     0.9460    -1.0640 ha         1 UNL       0.137250
     35 H4          -3.4860     1.6680    -2.9290 ha         1 UNL       0.141250
     36 H5          -3.3100     1.5110    -5.7890 h1         1 UNL       0.059450
     37 H6          -3.6880    -0.1450    -6.2550 h1         1 UNL       0.059450
     38 H7          -5.3810    -1.0030    -4.0320 h1         1 UNL       0.044450
     39 H8          -5.7540    -0.9970    -5.7860 h1         1 UNL       0.044450
     40 H9          -7.7840    -0.9540    -4.1600 h1         1 UNL       0.053200
     41 H10         -7.3070     0.7290    -3.7870 h1         1 UNL       0.053200
     42 H11         -8.7680     0.7660    -5.4250 ho         1 UNL       0.412000
     43 H12         -1.9620    -1.5560    -5.3470 ha         1 UNL       0.141250
     44 H13         -0.5260    -2.2710    -3.4950 ha         1 UNL       0.137250
     45 H14          0.6090     0.7750    -0.7490 ha         1 UNL       0.146000
     46 H15          0.7680     1.8110     1.7200 ha         1 UNL       0.137250
     47 H16          2.2760     3.4250     2.7770 ha         1 UNL       0.141250
     48 H17          4.4360     4.0340     3.6510 h1         1 UNL       0.059450
     49 H18          5.6300     3.6040     2.4270 h1         1 UNL       0.059450
     50 H19          4.2560     1.7250     5.2820 h1         1 UNL       0.044450
     51 H20          4.8300     3.3310     5.8350 h1         1 UNL       0.044450
     52 H21          6.4700     0.7350     5.9680 h1         1 UNL       0.053200
     53 H22          5.6410     1.4910     7.3540 h1         1 UNL       0.053200
     54 H23          7.5300     2.7870     5.6930 ho         1 UNL       0.412000
     55 H24          5.5890     0.7370     2.1670 ha         1 UNL       0.141250
     56 H25          4.0840    -0.8760     1.0920 ha         1 UNL       0.137250
     57 H26          1.9660    -2.2910     1.9470 ha         1 UNL       0.161000
@<TRIPOS>BOND
     1     1     2 2   
     2     2     3 1   
     3     2     4 1   
     4     3    32 1   
     5     4     5 ar  
     6     4    31 ar  
     7     5     6 ar  
     8     5    33 1   
     9     6     7 1   
    10     6    18 ar  
    11     7     8 ar  
    12     7    17 ar  
    13     8     9 ar  
    14     8    34 1   
    15     9    10 ar  
    16     9    35 1   
    17    10    11 1   
    18    10    16 ar  
    19    11    12 1   
    20    11    36 1   
    21    11    37 1   
    22    12    13 1   
    23    13    14 1   
    24    13    38 1   
    25    13    39 1   
    26    14    15 1   
    27    14    40 1   
    28    14    41 1   
    29    15    42 1   
    30    16    17 ar  
    31    16    43 1   
    32    17    44 1   
    33    18    19 ar  
    34    18    45 1   
    35    19    20 1   
    36    19    31 ar  
    37    20    21 ar  
    38    20    30 ar  
    39    21    22 ar  
    40    21    46 1   
    41    22    23 ar  
    42    22    47 1   
    43    23    24 1   
    44    23    29 ar  
    45    24    25 1   
    46    24    48 1   
    47    24    49 1   
    48    25    26 1   
    49    26    27 1   
    50    26    50 1   
    51    26    51 1   
    52    27    28 1   
    53    27    52 1   
    54    27    53 1   
    55    28    54 1   
    56    29    30 ar  
    57    29    55 1   
    58    30    56 1   
    59    31    57 1   
@<TRIPOS>SUBSTRUCTURE
     1 UNL         1 TEMP              0 ****  ****    0 ROOT
