@<TRIPOS>MOLECULE
UNL
   57    59     1     0     0
SMALL
bcc


@<TRIPOS>ATOM
      1 O1           1.7800     1.0050     5.8630 o          1 UNL      -0.554000
      2 C1           1.9720     0.0440     5.1410 c          1 UNL       0.651700
      3 O2           2.5570    -1.0720     5.6080 oh         1 UNL      -0.607100
      4 C2           1.6140    -0.0480     3.7050 ca         1 UNL      -0.136600
      5 C3           1.8820    -1.1930     2.9460 ca         1 UNL      -0.061500
      6 C4           1.5310    -1.2550     1.5890 cp         1 UNL      -0.048500
      7 C5           1.8130    -2.4580     0.7880 cp         1 UNL      -0.042500
      8 C6           0.7970    -3.0980     0.0610 ca         1 UNL      -0.118500
      9 C7           1.0620    -4.2420    -0.6990 ca         1 UNL      -0.116500
     10 C8           2.3550    -4.7750    -0.7530 ca         1 UNL      -0.095800
     11 C9           2.6420    -6.0170    -1.5620 c3         1 UNL       0.169700
     12 O3           3.7300    -5.8140    -2.4650 os         1 UNL      -0.422600
     13 C10          3.3660    -5.1190    -3.6630 c3         1 UNL       0.125400
     14 C11          2.8320    -6.0750    -4.7310 c3         1 UNL       0.111400
     15 O4           1.4620    -6.3910    -4.4950 oh         1 UNL      -0.605300
     16 C12          3.3740    -4.1440    -0.0310 ca         1 UNL      -0.116500
     17 C13          3.1060    -3.0010     0.7280 ca         1 UNL      -0.118500
     18 C14          0.9040    -0.1340     1.0140 ca         1 UNL      -0.078000
     19 C15          0.6220     1.0290     1.7540 cp         1 UNL      -0.048500
     20 C16         -0.0340     2.1880     1.1250 cp         1 UNL      -0.042500
     21 C17         -1.2370     2.0430     0.4170 ca         1 UNL      -0.118500
     22 C18         -1.8620     3.1440    -0.1780 ca         1 UNL      -0.116500
     23 C19         -1.2960     4.4210    -0.0930 ca         1 UNL      -0.095800
     24 C20         -1.9840     5.6210    -0.6950 c3         1 UNL       0.169700
     25 O5          -2.5320     5.2820    -1.9700 os         1 UNL      -0.422600
     26 C21         -3.2020     6.3930    -2.5610 c3         1 UNL       0.125400
     27 C22         -3.7610     5.9790    -3.9160 c3         1 UNL       0.111400
     28 O6          -4.4380     7.0730    -4.5210 oh         1 UNL      -0.605300
     29 C23         -0.1030     4.5760     0.6220 ca         1 UNL      -0.116500
     30 C24          0.5200     3.4740     1.2180 ca         1 UNL      -0.118500
     31 C25          0.9880     1.0530     3.1080 ca         1 UNL      -0.061500
     32 H1           2.7290    -0.8700     6.5510 ho         1 UNL       0.447000
     33 H2           2.3580    -2.0530     3.4140 ha         1 UNL       0.160500
     34 H3          -0.2210    -2.7140     0.0890 ha         1 UNL       0.135500
     35 H4           0.2500    -4.7130    -1.2500 ha         1 UNL       0.142000
     36 H5           2.9420    -6.8090    -0.8670 h1         1 UNL       0.054200
     37 H6           1.7530    -6.3810    -2.0830 h1         1 UNL       0.054200
     38 H7           2.6560    -4.3120    -3.4510 h1         1 UNL       0.053200
     39 H8           4.2900    -4.6650    -4.0370 h1         1 UNL       0.053200
     40 H9           3.4020    -7.0090    -4.7360 h1         1 UNL       0.034950
     41 H10          2.8940    -5.6040    -5.7170 h1         1 UNL       0.034950
     42 H11          1.2040    -7.0420    -5.1700 ho         1 UNL       0.403500
     43 H12          4.3880    -4.5400    -0.0660 ha         1 UNL       0.142000
     44 H13          3.9250    -2.5280     1.2670 ha         1 UNL       0.135500
     45 H14          0.6490    -0.1590    -0.0460 ha         1 UNL       0.146000
     46 H15         -1.7090     1.0660     0.3330 ha         1 UNL       0.135500
     47 H16         -2.7970     2.9980    -0.7160 ha         1 UNL       0.142000
     48 H17         -2.7830     5.9480    -0.0190 h1         1 UNL       0.054200
     49 H18         -1.2670     6.4400    -0.8270 h1         1 UNL       0.054200
     50 H19         -2.5050     7.2310    -2.6870 h1         1 UNL       0.053200
     51 H20         -4.0170     6.7320    -1.9100 h1         1 UNL       0.053200
     52 H21         -2.9530     5.6480    -4.5770 h1         1 UNL       0.034950
     53 H22         -4.4600     5.1440    -3.8010 h1         1 UNL       0.034950
     54 H23         -4.7710     6.7550    -5.3790 ho         1 UNL       0.403500
     55 H24          0.3580     5.5570     0.7190 ha         1 UNL       0.142000
     56 H25          1.4560     3.6290     1.7520 ha         1 UNL       0.135500
     57 H26          0.7720     1.9350     3.7110 ha         1 UNL       0.160500
@<TRIPOS>BOND
     1     1     2 2   
     2     2     3 1   
     3     2     4 1   
     4     3    32 1   
     5     4     5 ar  
     6     4    31 ar  
     7     5     6 ar  
     8     5    33 1   
     9     6     7 1   
    10     6    18 ar  
    11     7     8 ar  
    12     7    17 ar  
    13     8     9 ar  
    14     8    34 1   
    15     9    10 ar  
    16     9    35 1   
    17    10    11 1   
    18    10    16 ar  
    19    11    12 1   
    20    11    36 1   
    21    11    37 1   
    22    12    13 1   
    23    13    14 1   
    24    13    38 1   
    25    13    39 1   
    26    14    15 1   
    27    14    40 1   
    28    14    41 1   
    29    15    42 1   
    30    16    17 ar  
    31    16    43 1   
    32    17    44 1   
    33    18    19 ar  
    34    18    45 1   
    35    19    20 1   
    36    19    31 ar  
    37    20    21 ar  
    38    20    30 ar  
    39    21    22 ar  
    40    21    46 1   
    41    22    23 ar  
    42    22    47 1   
    43    23    24 1   
    44    23    29 ar  
    45    24    25 1   
    46    24    48 1   
    47    24    49 1   
    48    25    26 1   
    49    26    27 1   
    50    26    50 1   
    51    26    51 1   
    52    27    28 1   
    53    27    52 1   
    54    27    53 1   
    55    28    54 1   
    56    29    30 ar  
    57    29    55 1   
    58    30    56 1   
    59    31    57 1   
@<TRIPOS>SUBSTRUCTURE
     1 UNL         1 TEMP              0 ****  ****    0 ROOT
