@<TRIPOS>MOLECULE
UNL
   57    59     1     0     0
SMALL
bcc


@<TRIPOS>ATOM
      1 O1          -2.3150     6.2090     1.0200 o          1 UNL      -0.552000
      2 C1          -2.3410     5.0950     1.5100 c          1 UNL       0.651700
      3 O2          -2.8350     4.8880     2.7430 oh         1 UNL      -0.607100
      4 C2          -1.8570     3.8510     0.8650 ca         1 UNL      -0.135600
      5 C3          -1.9290     2.6080     1.5050 ca         1 UNL      -0.059500
      6 C4          -1.4650     1.4460     0.8710 cp         1 UNL      -0.050500
      7 C5          -1.5370     0.1370     1.5420 cp         1 UNL      -0.040000
      8 C6          -2.1620    -0.9590     0.9250 ca         1 UNL      -0.116000
      9 C7          -2.2320    -2.2040     1.5600 ca         1 UNL      -0.119500
     10 C8          -1.6710    -2.3860     2.8290 ca         1 UNL      -0.118300
     11 C9          -1.7590    -3.7220     3.5230 c3         1 UNL       0.175200
     12 O3          -0.4990    -4.1290     4.0620 os         1 UNL      -0.429600
     13 C10          0.3710    -4.6830     3.0640 c3         1 UNL       0.079400
     14 C11          1.6680    -5.0940     3.7530 c3         1 UNL       0.131900
     15 O4           2.2840    -3.9510     4.3440 oh         1 UNL      -0.600300
     16 C12         -1.0530    -1.2970     3.4550 ca         1 UNL      -0.119500
     17 C13         -0.9850    -0.0540     2.8180 ca         1 UNL      -0.116000
     18 C14         -0.9250     1.5660    -0.4230 ca         1 UNL      -0.078000
     19 C15         -0.8420     2.8020    -1.0890 cp         1 UNL      -0.050500
     20 C16         -0.2690     2.8980    -2.4420 cp         1 UNL      -0.040000
     21 C17         -0.7360     2.0810    -3.4850 ca         1 UNL      -0.116000
     22 C18         -0.1950     2.1690    -4.7720 ca         1 UNL      -0.119500
     23 C19          0.8360     3.0740    -5.0490 ca         1 UNL      -0.118300
     24 C20          1.4110     3.1850    -6.4390 c3         1 UNL       0.175200
     25 O5           2.8400     3.2030    -6.4260 os         1 UNL      -0.429600
     26 C21          3.4020     1.8930    -6.2630 c3         1 UNL       0.079400
     27 C22          4.9200     2.0350    -6.2460 c3         1 UNL       0.131900
     28 O6           5.3630     2.6040    -7.4780 oh         1 UNL      -0.600300
     29 C23          1.3010     3.8990    -4.0170 ca         1 UNL      -0.119500
     30 C24          0.7580     3.8090    -2.7320 ca         1 UNL      -0.116000
     31 C25         -1.3170     3.9420    -0.4230 ca         1 UNL      -0.059500
     32 H1          -3.1110     5.7810     3.0390 ho         1 UNL       0.448000
     33 H2          -2.3600     2.5370     2.5020 ha         1 UNL       0.162500
     34 H3          -2.6150    -0.8460    -0.0580 ha         1 UNL       0.137500
     35 H4          -2.7310    -3.0260     1.0530 ha         1 UNL       0.141750
     36 H5          -2.4590    -3.6260     4.3620 h1         1 UNL       0.059700
     37 H6          -2.1550    -4.5040     2.8630 h1         1 UNL       0.059700
     38 H7           0.5800    -3.9240     2.3030 h1         1 UNL       0.044200
     39 H8          -0.1010    -5.5560     2.6010 h1         1 UNL       0.044200
     40 H9           2.3690    -5.5340     3.0380 h1         1 UNL       0.053450
     41 H10          1.4730    -5.8140     4.5530 h1         1 UNL       0.053450
     42 H11          1.5620    -3.4860     4.8110 ho         1 UNL       0.412000
     43 H12         -0.6140    -1.4140     4.4430 ha         1 UNL       0.141750
     44 H13         -0.4830     0.7670     3.3260 ha         1 UNL       0.137500
     45 H14         -0.5360     0.6740    -0.9160 ha         1 UNL       0.144000
     46 H15         -1.5430     1.3740    -3.3050 ha         1 UNL       0.137500
     47 H16         -0.5890     1.5260    -5.5560 ha         1 UNL       0.141750
     48 H17          1.0740     4.1330    -6.8740 h1         1 UNL       0.059700
     49 H18          1.0530     2.3830    -7.0970 h1         1 UNL       0.059700
     50 H19          3.0940     1.2710    -7.1100 h1         1 UNL       0.044200
     51 H20          3.0600     1.4420    -5.3260 h1         1 UNL       0.044200
     52 H21          5.4030     1.0620    -6.1210 h1         1 UNL       0.053450
     53 H22          5.2420     2.7010    -5.4400 h1         1 UNL       0.053450
     54 H23          4.7930     3.3860    -7.6150 ho         1 UNL       0.412000
     55 H24          2.0980     4.6150    -4.2110 ha         1 UNL       0.141750
     56 H25          1.1540     4.4560    -1.9520 ha         1 UNL       0.137500
     57 H26         -1.2760     4.9130    -0.9170 ha         1 UNL       0.162500
@<TRIPOS>BOND
     1     1     2 2   
     2     2     3 1   
     3     2     4 1   
     4     3    32 1   
     5     4     5 ar  
     6     4    31 ar  
     7     5     6 ar  
     8     5    33 1   
     9     6     7 1   
    10     6    18 ar  
    11     7     8 ar  
    12     7    17 ar  
    13     8     9 ar  
    14     8    34 1   
    15     9    10 ar  
    16     9    35 1   
    17    10    11 1   
    18    10    16 ar  
    19    11    12 1   
    20    11    36 1   
    21    11    37 1   
    22    12    13 1   
    23    13    14 1   
    24    13    38 1   
    25    13    39 1   
    26    14    15 1   
    27    14    40 1   
    28    14    41 1   
    29    15    42 1   
    30    16    17 ar  
    31    16    43 1   
    32    17    44 1   
    33    18    19 ar  
    34    18    45 1   
    35    19    20 1   
    36    19    31 ar  
    37    20    21 ar  
    38    20    30 ar  
    39    21    22 ar  
    40    21    46 1   
    41    22    23 ar  
    42    22    47 1   
    43    23    24 1   
    44    23    29 ar  
    45    24    25 1   
    46    24    48 1   
    47    24    49 1   
    48    25    26 1   
    49    26    27 1   
    50    26    50 1   
    51    26    51 1   
    52    27    28 1   
    53    27    52 1   
    54    27    53 1   
    55    28    54 1   
    56    29    30 ar  
    57    29    55 1   
    58    30    56 1   
    59    31    57 1   
@<TRIPOS>SUBSTRUCTURE
     1 UNL         1 TEMP              0 ****  ****    0 ROOT
