MODEL 1
REMARK VINA RESULT:    -9.863      0.000      0.000
REMARK INTER + INTRA:         -19.600
REMARK INTER:                 -19.088
REMARK INTRA:                  -0.511
REMARK UNBOUND:                -0.511
REMARK SMILES C=CCOc1ccc(-c2ccc3ccc4c(-c5ccc(OCC=C)cc5)ccc5ccc2c3c54)cc1
REMARK SMILES IDX 9 1 10 2 11 3 12 4 13 5 14 6 15 7 16 8 27 9 28 10 29 11
REMARK SMILES IDX 30 12 31 13 32 14 33 15 34 16 8 17 5 18 6 19 36 20 7 21
REMARK SMILES IDX 35 22 4 23 3 24 2 25 1 26 17 27 18 28 26 29 19 30 25 31
REMARK SMILES IDX 20 32 21 33 22 34 23 35 24 36
REMARK H PARENT
REMARK Flexibility Score: inf
ROOT
ATOM      1  C   UNL     1       3.599   5.956   0.761  1.00  0.00    -0.010 A 
ATOM      2  C   UNL     1       3.139   4.710   0.307  1.00  0.00     0.010 A 
ATOM      3  C   UNL     1       3.851   3.985  -0.644  1.00  0.00     0.009 A 
ATOM      4  C   UNL     1       5.045   4.487  -1.168  1.00  0.00    -0.017 A 
ATOM      5  C   UNL     1       5.756   3.759  -2.123  1.00  0.00     0.009 A 
ATOM      6  C   UNL     1       6.949   4.252  -2.651  1.00  0.00     0.010 A 
ATOM      7  C   UNL     1       7.481   5.494  -2.246  1.00  0.00    -0.009 A 
ATOM      8  C   UNL     1       8.697   6.020  -2.767  1.00  0.00    -0.010 A 
ATOM      9  C   UNL     1       9.157   7.267  -2.315  1.00  0.00     0.010 A 
ATOM     10  C   UNL     1       8.443   7.993  -1.365  1.00  0.00     0.009 A 
ATOM     11  C   UNL     1       7.248   7.491  -0.840  1.00  0.00    -0.017 A 
ATOM     12  C   UNL     1       6.535   8.220   0.112  1.00  0.00     0.009 A 
ATOM     13  C   UNL     1       5.343   7.727   0.640  1.00  0.00     0.010 A 
ATOM     14  C   UNL     1       4.814   6.484   0.239  1.00  0.00    -0.009 A 
ATOM     15  C   UNL     1       5.537   5.740  -0.732  1.00  0.00    -0.002 A 
ATOM     16  C   UNL     1       6.757   6.238  -1.276  1.00  0.00    -0.002 A 
ENDROOT
BRANCH   1  17
ATOM     17  C   UNL     1       2.793   6.666   1.766  1.00  0.00    -0.018 A 
ATOM     18  C   UNL     1       1.237   8.036   3.684  1.00  0.00     0.119 A 
ATOM     19  C   UNL     1       1.264   6.640   3.653  1.00  0.00     0.047 A 
ATOM     20  C   UNL     1       1.983   8.749   2.746  1.00  0.00     0.047 A 
ATOM     21  C   UNL     1       2.033   5.959   2.707  1.00  0.00     0.012 A 
ATOM     22  C   UNL     1       2.755   8.067   1.796  1.00  0.00     0.012 A 
BRANCH  18  23
ATOM     23  O   UNL     1       0.436   8.566   4.655  1.00  0.00    -0.490 OA
BRANCH  23  24
ATOM     24  C   UNL     1      -0.874   8.032   4.843  1.00  0.00     0.257 C 
BRANCH  24  25
ATOM     25  C   UNL     1      -1.833   8.674   3.881  1.00  0.00     0.006 C 
ATOM     26  C   UNL     1      -2.304   8.088   2.772  1.00  0.00     0.007 C 
ENDBRANCH  24  25
ENDBRANCH  23  24
ENDBRANCH  18  23
ENDBRANCH   1  17
BRANCH   8  27
ATOM     27  C   UNL     1       9.504   5.307  -3.769  1.00  0.00    -0.018 A 
ATOM     28  C   UNL     1      10.741   5.817  -4.190  1.00  0.00     0.012 A 
ATOM     29  C   UNL     1       9.052   4.104  -4.329  1.00  0.00     0.012 A 
ATOM     30  C   UNL     1      11.513   5.141  -5.142  1.00  0.00     0.047 A 
ATOM     31  C   UNL     1       9.824   3.431  -5.279  1.00  0.00     0.047 A 
ATOM     32  C   UNL     1      11.057   3.942  -5.689  1.00  0.00     0.119 A 
BRANCH  32  33
ATOM     33  O   UNL     1      11.708   3.181  -6.621  1.00  0.00    -0.490 OA
BRANCH  33  34
ATOM     34  C   UNL     1      11.006   2.058  -7.147  1.00  0.00     0.257 C 
BRANCH  34  35
ATOM     35  C   UNL     1      10.777   2.316  -8.606  1.00  0.00     0.006 C 
ATOM     36  C   UNL     1      10.012   3.300  -9.099  1.00  0.00     0.007 C 
ENDBRANCH  34  35
ENDBRANCH  33  34
ENDBRANCH  32  33
ENDBRANCH   8  27
TORSDOF 8
REMARK SMILES C=CCOc1ccc(-c2ccc3ccc4c(-c5ccc(OCC=C)cc5)ccc5ccc2c3c54)cc1
REMARK SMILES IDX 9 1 10 2 11 3 12 4 13 5 14 6 15 7 16 8 27 9 28 10 29 11
REMARK SMILES IDX 30 12 31 13 32 14 33 15 34 16 8 17 5 18 6 19 36 20 7 21
REMARK SMILES IDX 35 22 4 23 3 24 2 25 1 26 17 27 18 28 26 29 19 30 25 31
REMARK SMILES IDX 20 32 21 33 22 34 23 35 24 36
REMARK H PARENT
REMARK Flexibility Score: inf
ROOT
ATOM      1  C   UNL     1       7.080   7.157  -5.899  1.00  0.00    -0.010 A 
ATOM      2  C   UNL     1       6.719   5.887  -6.376  1.00  0.00     0.010 A 
ATOM      3  C   UNL     1       5.582   5.240  -5.901  1.00  0.00     0.009 A 
ATOM      4  C   UNL     1       4.773   5.846  -4.936  1.00  0.00    -0.017 A 
ATOM      5  C   UNL     1       3.634   5.194  -4.461  1.00  0.00     0.009 A 
ATOM      6  C   UNL     1       2.822   5.792  -3.497  1.00  0.00     0.010 A 
ATOM      7  C   UNL     1       3.114   7.067  -2.970  1.00  0.00    -0.009 A 
ATOM      8  C   UNL     1       2.301   7.701  -1.988  1.00  0.00    -0.010 A 
ATOM      9  C   UNL     1       2.663   8.970  -1.510  1.00  0.00     0.010 A 
ATOM     10  C   UNL     1       3.802   9.616  -1.983  1.00  0.00     0.009 A 
ATOM     11  C   UNL     1       4.611   9.010  -2.948  1.00  0.00    -0.017 A 
ATOM     12  C   UNL     1       5.752   9.661  -3.422  1.00  0.00     0.009 A 
ATOM     13  C   UNL     1       6.564   9.063  -4.385  1.00  0.00     0.010 A 
ATOM     14  C   UNL     1       6.269   7.791  -4.916  1.00  0.00    -0.009 A 
ATOM     15  C   UNL     1       5.109   7.126  -4.435  1.00  0.00    -0.002 A 
ATOM     16  C   UNL     1       4.275   7.731  -3.450  1.00  0.00    -0.002 A 
ENDROOT
BRANCH   1  17
ATOM     17  C   UNL     1       8.296   7.779  -6.445  1.00  0.00    -0.018 A 
ATOM     18  C   UNL     1      10.622   8.980  -7.506  1.00  0.00     0.119 A 
ATOM     19  C   UNL     1      10.310   9.105  -6.150  1.00  0.00     0.047 A 
ATOM     20  C   UNL     1       9.763   8.261  -8.335  1.00  0.00     0.047 A 
ATOM     21  C   UNL     1       9.161   8.512  -5.622  1.00  0.00     0.012 A 
ATOM     22  C   UNL     1       8.610   7.665  -7.808  1.00  0.00     0.012 A 
BRANCH  18  23
ATOM     23  O   UNL     1      11.769   9.620  -7.884  1.00  0.00    -0.490 OA
BRANCH  23  24
ATOM     24  C   UNL     1      11.716  10.572  -8.945  1.00  0.00     0.257 C 
BRANCH  24  25
ATOM     25  C   UNL     1      10.992  11.807  -8.492  1.00  0.00     0.006 C 
ATOM     26  C   UNL     1      11.364  12.570  -7.455  1.00  0.00     0.007 C 
ENDBRANCH  24  25
ENDBRANCH  23  24
ENDBRANCH  18  23
ENDBRANCH   1  17
BRANCH   8  27
ATOM     27  C   UNL     1       1.083   7.079  -1.446  1.00  0.00    -0.018 A 
ATOM     28  C   UNL     1       0.733   5.765  -1.791  1.00  0.00     0.012 A 
ATOM     29  C   UNL     1       0.242   7.787  -0.577  1.00  0.00     0.012 A 
ATOM     30  C   UNL     1      -0.424   5.168  -1.277  1.00  0.00     0.047 A 
ATOM     31  C   UNL     1      -0.912   7.190  -0.064  1.00  0.00     0.047 A 
ATOM     32  C   UNL     1      -1.251   5.880  -0.408  1.00  0.00     0.119 A 
BRANCH  32  33
ATOM     33  O   UNL     1      -2.404   5.420   0.166  1.00  0.00    -0.490 OA
BRANCH  33  34
ATOM     34  C   UNL     1      -2.344   4.157   0.824  1.00  0.00     0.257 C 
BRANCH  34  35
ATOM     35  C   UNL     1      -1.223   4.223   1.818  1.00  0.00     0.006 C 
ATOM     36  C   UNL     1      -1.361   4.049   3.140  1.00  0.00     0.007 C 
ENDBRANCH  34  35
ENDBRANCH  33  34
ENDBRANCH  32  33
ENDBRANCH   8  27
TORSDOF 8
ENDMDL
MODEL 2
REMARK VINA RESULT:    -9.808      0.738     11.106
REMARK INTER + INTRA:         -19.493
REMARK INTER:                 -17.879
REMARK INTRA:                  -1.614
REMARK UNBOUND:                -0.511
REMARK SMILES C=CCOc1ccc(-c2ccc3ccc4c(-c5ccc(OCC=C)cc5)ccc5ccc2c3c54)cc1
REMARK SMILES IDX 9 1 10 2 11 3 12 4 13 5 14 6 15 7 16 8 27 9 28 10 29 11
REMARK SMILES IDX 30 12 31 13 32 14 33 15 34 16 8 17 5 18 6 19 36 20 7 21
REMARK SMILES IDX 35 22 4 23 3 24 2 25 1 26 17 27 18 28 26 29 19 30 25 31
REMARK SMILES IDX 20 32 21 33 22 34 23 35 24 36
REMARK H PARENT
REMARK Flexibility Score: inf
ROOT
ATOM      1  C   UNL     1       7.153   7.203  -5.937  1.00  0.00    -0.010 A 
ATOM      2  C   UNL     1       6.810   5.932  -6.426  1.00  0.00     0.010 A 
ATOM      3  C   UNL     1       5.673   5.271  -5.970  1.00  0.00     0.009 A 
ATOM      4  C   UNL     1       4.847   5.863  -5.012  1.00  0.00    -0.017 A 
ATOM      5  C   UNL     1       3.708   5.198  -4.555  1.00  0.00     0.009 A 
ATOM      6  C   UNL     1       2.878   5.781  -3.598  1.00  0.00     0.010 A 
ATOM      7  C   UNL     1       3.151   7.055  -3.058  1.00  0.00    -0.009 A 
ATOM      8  C   UNL     1       2.320   7.675  -2.083  1.00  0.00    -0.010 A 
ATOM      9  C   UNL     1       2.664   8.944  -1.592  1.00  0.00     0.010 A 
ATOM     10  C   UNL     1       3.802   9.605  -2.046  1.00  0.00     0.009 A 
ATOM     11  C   UNL     1       4.629   9.013  -3.006  1.00  0.00    -0.017 A 
ATOM     12  C   UNL     1       5.769   9.677  -3.460  1.00  0.00     0.009 A 
ATOM     13  C   UNL     1       6.599   9.093  -4.417  1.00  0.00     0.010 A 
ATOM     14  C   UNL     1       6.323   7.822  -4.960  1.00  0.00    -0.009 A 
ATOM     15  C   UNL     1       5.164   7.143  -4.498  1.00  0.00    -0.002 A 
ATOM     16  C   UNL     1       4.311   7.734  -3.520  1.00  0.00    -0.002 A 
ENDROOT
BRANCH   1  17
ATOM     17  C   UNL     1       8.370   7.840  -6.464  1.00  0.00    -0.018 A 
ATOM     18  C   UNL     1      10.714   9.048  -7.474  1.00  0.00     0.119 A 
ATOM     19  C   UNL     1       9.506   9.143  -8.170  1.00  0.00     0.047 A 
ATOM     20  C   UNL     1      10.751   8.338  -6.275  1.00  0.00     0.047 A 
ATOM     21  C   UNL     1       8.345   8.547  -7.673  1.00  0.00     0.012 A 
ATOM     22  C   UNL     1       9.587   7.740  -5.774  1.00  0.00     0.012 A 
BRANCH  18  23
ATOM     23  O   UNL     1      11.768   9.669  -8.082  1.00  0.00    -0.490 OA
BRANCH  23  24
ATOM     24  C   UNL     1      11.728  11.084  -8.266  1.00  0.00     0.257 C 
BRANCH  24  25
ATOM     25  C   UNL     1      11.650  11.773  -6.934  1.00  0.00     0.006 C 
ATOM     26  C   UNL     1      11.169  13.010  -6.744  1.00  0.00     0.007 C 
ENDBRANCH  24  25
ENDBRANCH  23  24
ENDBRANCH  18  23
ENDBRANCH   1  17
BRANCH   8  27
ATOM     27  C   UNL     1       1.101   7.038  -1.560  1.00  0.00    -0.018 A 
ATOM     28  C   UNL     1       0.886   5.661  -1.720  1.00  0.00     0.012 A 
ATOM     29  C   UNL     1       0.125   7.794  -0.896  1.00  0.00     0.012 A 
ATOM     30  C   UNL     1      -0.272   5.050  -1.223  1.00  0.00     0.047 A 
ATOM     31  C   UNL     1      -1.029   7.182  -0.401  1.00  0.00     0.047 A 
ATOM     32  C   UNL     1      -1.234   5.810  -0.559  1.00  0.00     0.119 A 
BRANCH  32  33
ATOM     33  O   UNL     1      -2.403   5.343  -0.024  1.00  0.00    -0.490 OA
BRANCH  33  34
ATOM     34  C   UNL     1      -2.490   3.943   0.224  1.00  0.00     0.257 C 
BRANCH  34  35
ATOM     35  C   UNL     1      -2.861   3.767   1.666  1.00  0.00     0.006 C 
ATOM     36  C   UNL     1      -3.002   4.766   2.549  1.00  0.00     0.007 C 
ENDBRANCH  34  35
ENDBRANCH  33  34
ENDBRANCH  32  33
ENDBRANCH   8  27
TORSDOF 8
REMARK SMILES C=CCOc1ccc(-c2ccc3ccc4c(-c5ccc(OCC=C)cc5)ccc5ccc2c3c54)cc1
REMARK SMILES IDX 9 1 10 2 11 3 12 4 13 5 14 6 15 7 16 8 27 9 28 10 29 11
REMARK SMILES IDX 30 12 31 13 32 14 33 15 34 16 8 17 5 18 6 19 36 20 7 21
REMARK SMILES IDX 35 22 4 23 3 24 2 25 1 26 17 27 18 28 26 29 19 30 25 31
REMARK SMILES IDX 20 32 21 33 22 34 23 35 24 36
REMARK H PARENT
REMARK Flexibility Score: inf
ROOT
ATOM      1  C   UNL     1       3.643   6.082   0.699  1.00  0.00    -0.010 A 
ATOM      2  C   UNL     1       3.165   4.817   0.321  1.00  0.00     0.010 A 
ATOM      3  C   UNL     1       3.875   4.020  -0.573  1.00  0.00     0.009 A 
ATOM      4  C   UNL     1       5.084   4.467  -1.113  1.00  0.00    -0.017 A 
ATOM      5  C   UNL     1       5.793   3.666  -2.010  1.00  0.00     0.009 A 
ATOM      6  C   UNL     1       7.000   4.104  -2.554  1.00  0.00     0.010 A 
ATOM      7  C   UNL     1       7.550   5.360  -2.223  1.00  0.00    -0.009 A 
ATOM      8  C   UNL     1       8.781   5.831  -2.761  1.00  0.00    -0.010 A 
ATOM      9  C   UNL     1       9.258   7.096  -2.384  1.00  0.00     0.010 A 
ATOM     10  C   UNL     1       8.547   7.894  -1.492  1.00  0.00     0.009 A 
ATOM     11  C   UNL     1       7.337   7.448  -0.952  1.00  0.00    -0.017 A 
ATOM     12  C   UNL     1       6.626   8.249  -0.057  1.00  0.00     0.009 A 
ATOM     13  C   UNL     1       5.419   7.811   0.487  1.00  0.00     0.010 A 
ATOM     14  C   UNL     1       4.872   6.554   0.159  1.00  0.00    -0.009 A 
ATOM     15  C   UNL     1       5.593   5.736  -0.752  1.00  0.00    -0.002 A 
ATOM     16  C   UNL     1       6.828   6.178  -1.312  1.00  0.00    -0.002 A 
ENDROOT
BRANCH   1  17
ATOM     17  C   UNL     1       2.838   6.869   1.646  1.00  0.00    -0.018 A 
ATOM     18  C   UNL     1       1.284   8.386   3.451  1.00  0.00     0.119 A 
ATOM     19  C   UNL     1       1.373   6.998   3.580  1.00  0.00     0.047 A 
ATOM     20  C   UNL     1       1.965   9.016   2.411  1.00  0.00     0.047 A 
ATOM     21  C   UNL     1       2.142   6.244   2.689  1.00  0.00     0.012 A 
ATOM     22  C   UNL     1       2.736   8.262   1.517  1.00  0.00     0.012 A 
BRANCH  18  23
ATOM     23  O   UNL     1       0.491   8.991   4.385  1.00  0.00    -0.490 OA
BRANCH  23  24
ATOM     24  C   UNL     1      -0.089  10.260   4.087  1.00  0.00     0.257 C 
BRANCH  24  25
ATOM     25  C   UNL     1      -1.407  10.073   3.393  1.00  0.00     0.006 C 
ATOM     26  C   UNL     1      -1.568  10.034   2.063  1.00  0.00     0.007 C 
ENDBRANCH  24  25
ENDBRANCH  23  24
ENDBRANCH  18  23
ENDBRANCH   1  17
BRANCH   8  27
ATOM     27  C   UNL     1       9.586   5.040  -3.705  1.00  0.00    -0.018 A 
ATOM     28  C   UNL     1      10.983   4.985  -3.585  1.00  0.00     0.012 A 
ATOM     29  C   UNL     1       8.977   4.330  -4.747  1.00  0.00     0.012 A 
ATOM     30  C   UNL     1      11.754   4.232  -4.480  1.00  0.00     0.047 A 
ATOM     31  C   UNL     1       9.747   3.579  -5.639  1.00  0.00     0.047 A 
ATOM     32  C   UNL     1      11.137   3.524  -5.510  1.00  0.00     0.119 A 
BRANCH  32  33
ATOM     33  O   UNL     1      11.765   2.752  -6.448  1.00  0.00    -0.490 OA
BRANCH  33  34
ATOM     34  C   UNL     1      11.706   1.339  -6.272  1.00  0.00     0.257 C 
BRANCH  34  35
ATOM     35  C   UNL     1      11.283   0.742  -7.581  1.00  0.00     0.006 C 
ATOM     36  C   UNL     1      11.161   1.423  -8.729  1.00  0.00     0.007 C 
ENDBRANCH  34  35
ENDBRANCH  33  34
ENDBRANCH  32  33
ENDBRANCH   8  27
TORSDOF 8
ENDMDL
MODEL 3
REMARK VINA RESULT:    -9.736      1.703      9.498
REMARK INTER + INTRA:         -19.354
REMARK INTER:                 -16.900
REMARK INTRA:                  -2.454
REMARK UNBOUND:                -0.511
REMARK SMILES C=CCOc1ccc(-c2ccc3ccc4c(-c5ccc(OCC=C)cc5)ccc5ccc2c3c54)cc1
REMARK SMILES IDX 9 1 10 2 11 3 12 4 13 5 14 6 15 7 16 8 27 9 28 10 29 11
REMARK SMILES IDX 30 12 31 13 32 14 33 15 34 16 8 17 5 18 6 19 36 20 7 21
REMARK SMILES IDX 35 22 4 23 3 24 2 25 1 26 17 27 18 28 26 29 19 30 25 31
REMARK SMILES IDX 20 32 21 33 22 34 23 35 24 36
REMARK H PARENT
REMARK Flexibility Score: inf
ROOT
ATOM      1  C   UNL     1       7.474   8.137  -5.059  1.00  0.00    -0.010 A 
ATOM      2  C   UNL     1       7.471   9.476  -4.637  1.00  0.00     0.010 A 
ATOM      3  C   UNL     1       6.423   9.984  -3.874  1.00  0.00     0.009 A 
ATOM      4  C   UNL     1       5.350   9.167  -3.511  1.00  0.00    -0.017 A 
ATOM      5  C   UNL     1       4.300   9.679  -2.748  1.00  0.00     0.009 A 
ATOM      6  C   UNL     1       3.225   8.870  -2.382  1.00  0.00     0.010 A 
ATOM      7  C   UNL     1       3.154   7.514  -2.763  1.00  0.00    -0.009 A 
ATOM      8  C   UNL     1       2.070   6.665  -2.402  1.00  0.00    -0.010 A 
ATOM      9  C   UNL     1       2.072   5.327  -2.825  1.00  0.00     0.010 A 
ATOM     10  C   UNL     1       3.119   4.819  -3.590  1.00  0.00     0.009 A 
ATOM     11  C   UNL     1       4.193   5.637  -3.953  1.00  0.00    -0.017 A 
ATOM     12  C   UNL     1       5.242   5.126  -4.719  1.00  0.00     0.009 A 
ATOM     13  C   UNL     1       6.317   5.935  -5.085  1.00  0.00     0.010 A 
ATOM     14  C   UNL     1       6.389   7.288  -4.700  1.00  0.00    -0.009 A 
ATOM     15  C   UNL     1       5.323   7.812  -3.920  1.00  0.00    -0.002 A 
ATOM     16  C   UNL     1       4.220   6.991  -3.543  1.00  0.00    -0.002 A 
ENDROOT
BRANCH   1  17
ATOM     17  C   UNL     1       8.614   7.671  -5.864  1.00  0.00    -0.018 A 
ATOM     18  C   UNL     1      10.803   6.763  -7.399  1.00  0.00     0.119 A 
ATOM     19  C   UNL     1       9.565   7.005  -7.998  1.00  0.00     0.047 A 
ATOM     20  C   UNL     1      10.944   6.965  -6.027  1.00  0.00     0.047 A 
ATOM     21  C   UNL     1       8.479   7.455  -7.242  1.00  0.00     0.012 A 
ATOM     22  C   UNL     1       9.857   7.416  -5.267  1.00  0.00     0.012 A 
BRANCH  18  23
ATOM     23  O   UNL     1      11.769   6.318  -8.257  1.00  0.00    -0.490 OA
BRANCH  23  24
ATOM     24  C   UNL     1      11.509   5.164  -9.057  1.00  0.00     0.257 C 
BRANCH  24  25
ATOM     25  C   UNL     1      11.302   3.965  -8.177  1.00  0.00     0.006 C 
ATOM     26  C   UNL     1      10.569   2.894  -8.510  1.00  0.00     0.007 C 
ENDBRANCH  24  25
ENDBRANCH  23  24
ENDBRANCH  18  23
ENDBRANCH   1  17
BRANCH   8  27
ATOM     27  C   UNL     1       0.933   7.133  -1.593  1.00  0.00    -0.018 A 
ATOM     28  C   UNL     1       0.421   8.428  -1.755  1.00  0.00     0.012 A 
ATOM     29  C   UNL     1       0.341   6.296  -0.638  1.00  0.00     0.012 A 
ATOM     30  C   UNL     1      -0.662   8.877  -0.989  1.00  0.00     0.047 A 
ATOM     31  C   UNL     1      -0.739   6.745   0.126  1.00  0.00     0.047 A 
ATOM     32  C   UNL     1      -1.247   8.035  -0.046  1.00  0.00     0.119 A 
BRANCH  32  33
ATOM     33  O   UNL     1      -2.306   8.342   0.764  1.00  0.00    -0.490 OA
BRANCH  33  34
ATOM     34  C   UNL     1      -2.104   9.364   1.737  1.00  0.00     0.257 C 
BRANCH  34  35
ATOM     35  C   UNL     1      -2.468   8.788   3.072  1.00  0.00     0.006 C 
ATOM     36  C   UNL     1      -1.866   7.735   3.643  1.00  0.00     0.007 C 
ENDBRANCH  34  35
ENDBRANCH  33  34
ENDBRANCH  32  33
ENDBRANCH   8  27
TORSDOF 8
REMARK SMILES C=CCOc1ccc(-c2ccc3ccc4c(-c5ccc(OCC=C)cc5)ccc5ccc2c3c54)cc1
REMARK SMILES IDX 9 1 10 2 11 3 12 4 13 5 14 6 15 7 16 8 27 9 28 10 29 11
REMARK SMILES IDX 30 12 31 13 32 14 33 15 34 16 8 17 5 18 6 19 36 20 7 21
REMARK SMILES IDX 35 22 4 23 3 24 2 25 1 26 17 27 18 28 26 29 19 30 25 31
REMARK SMILES IDX 20 32 21 33 22 34 23 35 24 36
REMARK H PARENT
REMARK Flexibility Score: inf
ROOT
ATOM      1  C   UNL     1       8.741   5.521  -2.294  1.00  0.00    -0.010 A 
ATOM      2  C   UNL     1       9.271   6.817  -2.181  1.00  0.00     0.010 A 
ATOM      3  C   UNL     1       8.582   7.817  -1.502  1.00  0.00     0.009 A 
ATOM      4  C   UNL     1       7.342   7.550  -0.916  1.00  0.00    -0.017 A 
ATOM      5  C   UNL     1       6.652   8.555  -0.238  1.00  0.00     0.009 A 
ATOM      6  C   UNL     1       5.413   8.297   0.350  1.00  0.00     0.010 A 
ATOM      7  C   UNL     1       4.814   7.022   0.284  1.00  0.00    -0.009 A 
ATOM      8  C   UNL     1       3.553   6.730   0.876  1.00  0.00    -0.010 A 
ATOM      9  C   UNL     1       3.021   5.436   0.762  1.00  0.00     0.010 A 
ATOM     10  C   UNL     1       3.710   4.436   0.081  1.00  0.00     0.009 A 
ATOM     11  C   UNL     1       4.950   4.703  -0.505  1.00  0.00    -0.017 A 
ATOM     12  C   UNL     1       5.639   3.699  -1.186  1.00  0.00     0.009 A 
ATOM     13  C   UNL     1       6.878   3.957  -1.774  1.00  0.00     0.010 A 
ATOM     14  C   UNL     1       7.479   5.230  -1.704  1.00  0.00    -0.009 A 
ATOM     15  C   UNL     1       6.779   6.255  -1.012  1.00  0.00    -0.002 A 
ATOM     16  C   UNL     1       5.513   5.998  -0.409  1.00  0.00    -0.002 A 
ENDROOT
BRANCH   1  17
ATOM     17  C   UNL     1       9.525   4.516  -3.028  1.00  0.00    -0.018 A 
ATOM     18  C   UNL     1      11.030   2.576  -4.423  1.00  0.00     0.119 A 
ATOM     19  C   UNL     1       9.883   3.134  -4.993  1.00  0.00     0.047 A 
ATOM     20  C   UNL     1      11.419   2.982  -3.148  1.00  0.00     0.047 A 
ATOM     21  C   UNL     1       9.136   4.095  -4.306  1.00  0.00     0.012 A 
ATOM     22  C   UNL     1      10.672   3.946  -2.457  1.00  0.00     0.012 A 
BRANCH  18  23
ATOM     23  O   UNL     1      11.653   1.644  -5.204  1.00  0.00    -0.490 OA
BRANCH  23  24
ATOM     24  C   UNL     1      11.692   0.286  -4.767  1.00  0.00     0.257 C 
BRANCH  24  25
ATOM     25  C   UNL     1      10.489  -0.453  -5.277  1.00  0.00     0.006 C 
ATOM     26  C   UNL     1       9.296  -0.478  -4.667  1.00  0.00     0.007 C 
ENDBRANCH  24  25
ENDBRANCH  23  24
ENDBRANCH  18  23
ENDBRANCH   1  17
BRANCH   8  27
ATOM     27  C   UNL     1       2.772   7.737   1.614  1.00  0.00    -0.018 A 
ATOM     28  C   UNL     1       2.394   7.517   2.946  1.00  0.00     0.012 A 
ATOM     29  C   UNL     1       2.384   8.934   0.998  1.00  0.00     0.012 A 
ATOM     30  C   UNL     1       1.653   8.472   3.653  1.00  0.00     0.047 A 
ATOM     31  C   UNL     1       1.644   9.886   1.705  1.00  0.00     0.047 A 
ATOM     32  C   UNL     1       1.277   9.663   3.033  1.00  0.00     0.119 A 
BRANCH  32  33
ATOM     33  O   UNL     1       0.557  10.677   3.603  1.00  0.00    -0.490 OA
BRANCH  33  34
ATOM     34  C   UNL     1       0.348  11.847   2.817  1.00  0.00     0.257 C 
BRANCH  34  35
ATOM     35  C   UNL     1      -0.784  12.607   3.438  1.00  0.00     0.006 C 
ATOM     36  C   UNL     1      -0.758  13.914   3.735  1.00  0.00     0.007 C 
ENDBRANCH  34  35
ENDBRANCH  33  34
ENDBRANCH  32  33
ENDBRANCH   8  27
TORSDOF 8
ENDMDL
MODEL 4
REMARK VINA RESULT:    -9.712      1.824      7.886
REMARK INTER + INTRA:         -19.308
REMARK INTER:                 -16.801
REMARK INTRA:                  -2.507
REMARK UNBOUND:                -0.511
REMARK SMILES C=CCOc1ccc(-c2ccc3ccc4c(-c5ccc(OCC=C)cc5)ccc5ccc2c3c54)cc1
REMARK SMILES IDX 9 1 10 2 11 3 12 4 13 5 14 6 15 7 16 8 27 9 28 10 29 11
REMARK SMILES IDX 30 12 31 13 32 14 33 15 34 16 8 17 5 18 6 19 36 20 7 21
REMARK SMILES IDX 35 22 4 23 3 24 2 25 1 26 17 27 18 28 26 29 19 30 25 31
REMARK SMILES IDX 20 32 21 33 22 34 23 35 24 36
REMARK H PARENT
REMARK Flexibility Score: inf
ROOT
ATOM      1  C   UNL     1       2.040   6.528  -2.396  1.00  0.00    -0.010 A 
ATOM      2  C   UNL     1       2.058   5.168  -2.746  1.00  0.00     0.010 A 
ATOM      3  C   UNL     1       3.110   4.631  -3.482  1.00  0.00     0.009 A 
ATOM      4  C   UNL     1       4.174   5.439  -3.890  1.00  0.00    -0.017 A 
ATOM      5  C   UNL     1       5.227   4.899  -4.630  1.00  0.00     0.009 A 
ATOM      6  C   UNL     1       6.293   5.699  -5.040  1.00  0.00     0.010 A 
ATOM      7  C   UNL     1       6.351   7.072  -4.728  1.00  0.00    -0.009 A 
ATOM      8  C   UNL     1       7.428   7.911  -5.132  1.00  0.00    -0.010 A 
ATOM      9  C   UNL     1       7.409   9.271  -4.785  1.00  0.00     0.010 A 
ATOM     10  C   UNL     1       6.357   9.809  -4.050  1.00  0.00     0.009 A 
ATOM     11  C   UNL     1       5.291   9.000  -3.642  1.00  0.00    -0.017 A 
ATOM     12  C   UNL     1       4.237   9.541  -2.904  1.00  0.00     0.009 A 
ATOM     13  C   UNL     1       3.171   8.741  -2.494  1.00  0.00     0.010 A 
ATOM     14  C   UNL     1       3.115   7.367  -2.802  1.00  0.00    -0.009 A 
ATOM     15  C   UNL     1       4.187   6.814  -3.554  1.00  0.00    -0.002 A 
ATOM     16  C   UNL     1       5.279   7.626  -3.977  1.00  0.00    -0.002 A 
ENDROOT
BRANCH   1  17
ATOM     17  C   UNL     1       0.895   7.025  -1.618  1.00  0.00    -0.018 A 
ATOM     18  C   UNL     1      -1.313   7.982  -0.139  1.00  0.00     0.119 A 
ATOM     19  C   UNL     1      -0.726   6.752   0.171  1.00  0.00     0.047 A 
ATOM     20  C   UNL     1      -0.800   8.730  -1.198  1.00  0.00     0.047 A 
ATOM     21  C   UNL     1       0.367   6.276  -0.559  1.00  0.00     0.012 A 
ATOM     22  C   UNL     1       0.296   8.254  -1.930  1.00  0.00     0.012 A 
BRANCH  18  23
ATOM     23  O   UNL     1      -2.377   8.315   0.650  1.00  0.00    -0.490 OA
BRANCH  23  24
ATOM     24  C   UNL     1      -2.159   9.125   1.805  1.00  0.00     0.257 C 
BRANCH  24  25
ATOM     25  C   UNL     1      -2.767  10.483   1.603  1.00  0.00     0.006 C 
ATOM     26  C   UNL     1      -2.225  11.456   0.858  1.00  0.00     0.007 C 
ENDBRANCH  24  25
ENDBRANCH  23  24
ENDBRANCH  18  23
ENDBRANCH   1  17
BRANCH   8  27
ATOM     27  C   UNL     1       8.575   7.410  -5.907  1.00  0.00    -0.018 A 
ATOM     28  C   UNL     1       9.833   7.257  -5.307  1.00  0.00     0.012 A 
ATOM     29  C   UNL     1       8.435   7.082  -7.262  1.00  0.00     0.012 A 
ATOM     30  C   UNL     1      10.927   6.779  -6.040  1.00  0.00     0.047 A 
ATOM     31  C   UNL     1       9.528   6.605  -7.991  1.00  0.00     0.047 A 
ATOM     32  C   UNL     1      10.777   6.449  -7.386  1.00  0.00     0.119 A 
BRANCH  32  33
ATOM     33  O   UNL     1      11.755   5.972  -8.214  1.00  0.00    -0.490 OA
BRANCH  33  34
ATOM     34  C   UNL     1      11.395   4.920  -9.106  1.00  0.00     0.257 C 
BRANCH  34  35
ATOM     35  C   UNL     1      11.327   3.656  -8.304  1.00  0.00     0.006 C 
ATOM     36  C   UNL     1      10.321   2.771  -8.353  1.00  0.00     0.007 C 
ENDBRANCH  34  35
ENDBRANCH  33  34
ENDBRANCH  32  33
ENDBRANCH   8  27
TORSDOF 8
REMARK SMILES C=CCOc1ccc(-c2ccc3ccc4c(-c5ccc(OCC=C)cc5)ccc5ccc2c3c54)cc1
REMARK SMILES IDX 9 1 10 2 11 3 12 4 13 5 14 6 15 7 16 8 27 9 28 10 29 11
REMARK SMILES IDX 30 12 31 13 32 14 33 15 34 16 8 17 5 18 6 19 36 20 7 21
REMARK SMILES IDX 35 22 4 23 3 24 2 25 1 26 17 27 18 28 26 29 19 30 25 31
REMARK SMILES IDX 20 32 21 33 22 34 23 35 24 36
REMARK H PARENT
REMARK Flexibility Score: inf
ROOT
ATOM      1  C   UNL     1       3.598   6.756   0.796  1.00  0.00    -0.010 A 
ATOM      2  C   UNL     1       3.080   5.452   0.747  1.00  0.00     0.010 A 
ATOM      3  C   UNL     1       3.778   4.426   0.117  1.00  0.00     0.009 A 
ATOM      4  C   UNL     1       5.015   4.676  -0.483  1.00  0.00    -0.017 A 
ATOM      5  C   UNL     1       5.712   3.646  -1.116  1.00  0.00     0.009 A 
ATOM      6  C   UNL     1       6.948   3.887  -1.716  1.00  0.00     0.010 A 
ATOM      7  C   UNL     1       7.538   5.168  -1.709  1.00  0.00    -0.009 A 
ATOM      8  C   UNL     1       8.798   5.442  -2.313  1.00  0.00    -0.010 A 
ATOM      9  C   UNL     1       9.315   6.746  -2.266  1.00  0.00     0.010 A 
ATOM     10  C   UNL     1       8.616   7.772  -1.638  1.00  0.00     0.009 A 
ATOM     11  C   UNL     1       7.378   7.522  -1.038  1.00  0.00    -0.017 A 
ATOM     12  C   UNL     1       6.679   8.553  -0.407  1.00  0.00     0.009 A 
ATOM     13  C   UNL     1       5.443   8.312   0.194  1.00  0.00     0.010 A 
ATOM     14  C   UNL     1       4.856   7.031   0.190  1.00  0.00    -0.009 A 
ATOM     15  C   UNL     1       5.565   5.979  -0.451  1.00  0.00    -0.002 A 
ATOM     16  C   UNL     1       6.828   6.219  -1.068  1.00  0.00    -0.002 A 
ENDROOT
BRANCH   1  17
ATOM     17  C   UNL     1       2.803   7.790   1.477  1.00  0.00    -0.018 A 
ATOM     18  C   UNL     1       1.266   9.773   2.774  1.00  0.00     0.119 A 
ATOM     19  C   UNL     1       1.634   8.604   3.445  1.00  0.00     0.047 A 
ATOM     20  C   UNL     1       1.658   9.944   1.447  1.00  0.00     0.047 A 
ATOM     21  C   UNL     1       2.395   7.621   2.807  1.00  0.00     0.012 A 
ATOM     22  C   UNL     1       2.422   8.960   0.806  1.00  0.00     0.012 A 
BRANCH  18  23
ATOM     23  O   UNL     1       0.515  10.639   3.517  1.00  0.00    -0.490 OA
BRANCH  23  24
ATOM     24  C   UNL     1       0.465  12.015   3.140  1.00  0.00     0.257 C 
BRANCH  24  25
ATOM     25  C   UNL     1       1.210  12.849   4.142  1.00  0.00     0.006 C 
ATOM     26  C   UNL     1       2.160  13.742   3.833  1.00  0.00     0.007 C 
ENDBRANCH  24  25
ENDBRANCH  23  24
ENDBRANCH  18  23
ENDBRANCH   1  17
BRANCH   8  27
ATOM     27  C   UNL     1       9.593   4.405  -2.991  1.00  0.00    -0.018 A 
ATOM     28  C   UNL     1      10.718   3.844  -2.370  1.00  0.00     0.012 A 
ATOM     29  C   UNL     1       9.246   3.961  -4.273  1.00  0.00     0.012 A 
ATOM     30  C   UNL     1      11.477   2.856  -3.010  1.00  0.00     0.047 A 
ATOM     31  C   UNL     1      10.005   2.975  -4.910  1.00  0.00     0.047 A 
ATOM     32  C   UNL     1      11.121   2.417  -4.284  1.00  0.00     0.119 A 
BRANCH  32  33
ATOM     33  O   UNL     1      11.769   1.463  -5.019  1.00  0.00    -0.490 OA
BRANCH  33  34
ATOM     34  C   UNL     1      11.325   0.116  -4.872  1.00  0.00     0.257 C 
BRANCH  34  35
ATOM     35  C   UNL     1      10.447  -0.197  -6.046  1.00  0.00     0.006 C 
ATOM     36  C   UNL     1       9.202  -0.686  -5.963  1.00  0.00     0.007 C 
ENDBRANCH  34  35
ENDBRANCH  33  34
ENDBRANCH  32  33
ENDBRANCH   8  27
TORSDOF 8
ENDMDL
MODEL 5
REMARK VINA RESULT:    -9.704      0.584     11.407
REMARK INTER + INTRA:         -19.292
REMARK INTER:                 -18.006
REMARK INTRA:                  -1.286
REMARK UNBOUND:                -0.511
REMARK SMILES C=CCOc1ccc(-c2ccc3ccc4c(-c5ccc(OCC=C)cc5)ccc5ccc2c3c54)cc1
REMARK SMILES IDX 9 1 10 2 11 3 12 4 13 5 14 6 15 7 16 8 27 9 28 10 29 11
REMARK SMILES IDX 30 12 31 13 32 14 33 15 34 16 8 17 5 18 6 19 36 20 7 21
REMARK SMILES IDX 35 22 4 23 3 24 2 25 1 26 17 27 18 28 26 29 19 30 25 31
REMARK SMILES IDX 20 32 21 33 22 34 23 35 24 36
REMARK H PARENT
REMARK Flexibility Score: inf
ROOT
ATOM      1  C   UNL     1       8.746   5.912  -2.705  1.00  0.00    -0.010 A 
ATOM      2  C   UNL     1       9.220   7.160  -2.269  1.00  0.00     0.010 A 
ATOM      3  C   UNL     1       8.501   7.919  -1.350  1.00  0.00     0.009 A 
ATOM      4  C   UNL     1       7.287   7.450  -0.841  1.00  0.00    -0.017 A 
ATOM      5  C   UNL     1       6.567   8.213   0.079  1.00  0.00     0.009 A 
ATOM      6  C   UNL     1       5.355   7.753   0.593  1.00  0.00     0.010 A 
ATOM      7  C   UNL     1       4.812   6.510   0.208  1.00  0.00    -0.009 A 
ATOM      8  C   UNL     1       3.578   6.015   0.717  1.00  0.00    -0.010 A 
ATOM      9  C   UNL     1       3.103   4.768   0.280  1.00  0.00     0.010 A 
ATOM     10  C   UNL     1       3.822   4.010  -0.640  1.00  0.00     0.009 A 
ATOM     11  C   UNL     1       5.036   4.479  -1.150  1.00  0.00    -0.017 A 
ATOM     12  C   UNL     1       5.755   3.717  -2.073  1.00  0.00     0.009 A 
ATOM     13  C   UNL     1       6.967   4.177  -2.586  1.00  0.00     0.010 A 
ATOM     14  C   UNL     1       7.512   5.418  -2.197  1.00  0.00    -0.009 A 
ATOM     15  C   UNL     1       6.782   6.196  -1.259  1.00  0.00    -0.002 A 
ATOM     16  C   UNL     1       5.542   5.732  -0.731  1.00  0.00    -0.002 A 
ENDROOT
BRANCH   1  17
ATOM     17  C   UNL     1       9.559   5.167  -3.679  1.00  0.00    -0.018 A 
ATOM     18  C   UNL     1      11.128   3.731  -5.536  1.00  0.00     0.119 A 
ATOM     19  C   UNL     1       9.734   3.649  -5.567  1.00  0.00     0.047 A 
ATOM     20  C   UNL     1      11.739   4.525  -4.567  1.00  0.00     0.047 A 
ATOM     21  C   UNL     1       8.955   4.359  -4.650  1.00  0.00     0.012 A 
ATOM     22  C   UNL     1      10.959   5.238  -3.647  1.00  0.00     0.012 A 
BRANCH  18  23
ATOM     23  O   UNL     1      11.760   2.977  -6.484  1.00  0.00    -0.490 OA
BRANCH  23  24
ATOM     24  C   UNL     1      10.976   2.259  -7.437  1.00  0.00     0.257 C 
BRANCH  24  25
ATOM     25  C   UNL     1      11.154   0.781  -7.239  1.00  0.00     0.006 C 
ATOM     26  C   UNL     1      10.160  -0.076  -6.972  1.00  0.00     0.007 C 
ENDBRANCH  24  25
ENDBRANCH  23  24
ENDBRANCH  18  23
ENDBRANCH   1  17
BRANCH   8  27
ATOM     27  C   UNL     1       2.769   6.760   1.695  1.00  0.00    -0.018 A 
ATOM     28  C   UNL     1       2.700   8.160   1.652  1.00  0.00     0.012 A 
ATOM     29  C   UNL     1       2.053   6.086   2.694  1.00  0.00     0.012 A 
ATOM     30  C   UNL     1       1.930   8.873   2.578  1.00  0.00     0.047 A 
ATOM     31  C   UNL     1       1.285   6.799   3.618  1.00  0.00     0.047 A 
ATOM     32  C   UNL     1       1.217   8.193   3.565  1.00  0.00     0.119 A 
BRANCH  32  33
ATOM     33  O   UNL     1       0.428   8.762   4.527  1.00  0.00    -0.490 OA
BRANCH  33  34
ATOM     34  C   UNL     1      -0.473   9.783   4.107  1.00  0.00     0.257 C 
BRANCH  34  35
ATOM     35  C   UNL     1      -1.860   9.320   4.440  1.00  0.00     0.006 C 
ATOM     36  C   UNL     1      -2.662   9.895   5.348  1.00  0.00     0.007 C 
ENDBRANCH  34  35
ENDBRANCH  33  34
ENDBRANCH  32  33
ENDBRANCH   8  27
TORSDOF 8
REMARK SMILES C=CCOc1ccc(-c2ccc3ccc4c(-c5ccc(OCC=C)cc5)ccc5ccc2c3c54)cc1
REMARK SMILES IDX 9 1 10 2 11 3 12 4 13 5 14 6 15 7 16 8 27 9 28 10 29 11
REMARK SMILES IDX 30 12 31 13 32 14 33 15 34 16 8 17 5 18 6 19 36 20 7 21
REMARK SMILES IDX 35 22 4 23 3 24 2 25 1 26 17 27 18 28 26 29 19 30 25 31
REMARK SMILES IDX 20 32 21 33 22 34 23 35 24 36
REMARK H PARENT
REMARK Flexibility Score: inf
ROOT
ATOM      1  C   UNL     1       2.338   7.650  -2.075  1.00  0.00    -0.010 A 
ATOM      2  C   UNL     1       2.671   8.916  -1.566  1.00  0.00     0.010 A 
ATOM      3  C   UNL     1       3.806   9.590  -2.007  1.00  0.00     0.009 A 
ATOM      4  C   UNL     1       4.640   9.017  -2.971  1.00  0.00    -0.017 A 
ATOM      5  C   UNL     1       5.778   9.695  -3.411  1.00  0.00     0.009 A 
ATOM      6  C   UNL     1       6.615   9.130  -4.373  1.00  0.00     0.010 A 
ATOM      7  C   UNL     1       6.349   7.865  -4.936  1.00  0.00    -0.009 A 
ATOM      8  C   UNL     1       7.186   7.267  -5.920  1.00  0.00    -0.010 A 
ATOM      9  C   UNL     1       6.854   6.001  -6.428  1.00  0.00     0.010 A 
ATOM     10  C   UNL     1       5.720   5.326  -5.986  1.00  0.00     0.009 A 
ATOM     11  C   UNL     1       4.886   5.898  -5.021  1.00  0.00    -0.017 A 
ATOM     12  C   UNL     1       3.749   5.220  -4.579  1.00  0.00     0.009 A 
ATOM     13  C   UNL     1       2.911   5.784  -3.617  1.00  0.00     0.010 A 
ATOM     14  C   UNL     1       3.175   7.051  -3.058  1.00  0.00    -0.009 A 
ATOM     15  C   UNL     1       4.332   7.744  -3.505  1.00  0.00    -0.002 A 
ATOM     16  C   UNL     1       5.193   7.172  -4.488  1.00  0.00    -0.002 A 
ENDROOT
BRANCH   1  17
ATOM     17  C   UNL     1       1.124   6.997  -1.561  1.00  0.00    -0.018 A 
ATOM     18  C   UNL     1      -1.196   5.730  -0.567  1.00  0.00     0.119 A 
ATOM     19  C   UNL     1      -0.895   7.047  -0.212  1.00  0.00     0.047 A 
ATOM     20  C   UNL     1      -0.328   5.042  -1.413  1.00  0.00     0.047 A 
ATOM     21  C   UNL     1       0.252   7.677  -0.702  1.00  0.00     0.012 A 
ATOM     22  C   UNL     1       0.822   5.672  -1.906  1.00  0.00     0.012 A 
BRANCH  18  23
ATOM     23  O   UNL     1      -2.341   5.240  -0.006  1.00  0.00    -0.490 OA
BRANCH  23  24
ATOM     24  C   UNL     1      -2.287   4.018   0.730  1.00  0.00     0.257 C 
BRANCH  24  25
ATOM     25  C   UNL     1      -1.655   4.255   2.071  1.00  0.00     0.006 C 
ATOM     26  C   UNL     1      -2.094   3.728   3.223  1.00  0.00     0.007 C 
ENDBRANCH  24  25
ENDBRANCH  23  24
ENDBRANCH  18  23
ENDBRANCH   1  17
BRANCH   8  27
ATOM     27  C   UNL     1       8.397   7.924  -6.437  1.00  0.00    -0.018 A 
ATOM     28  C   UNL     1       9.630   7.768  -5.788  1.00  0.00     0.012 A 
ATOM     29  C   UNL     1       8.343   8.725  -7.586  1.00  0.00     0.012 A 
ATOM     30  C   UNL     1      10.786   8.390  -6.277  1.00  0.00     0.047 A 
ATOM     31  C   UNL     1       9.497   9.345  -8.072  1.00  0.00     0.047 A 
ATOM     32  C   UNL     1      10.723   9.180  -7.424  1.00  0.00     0.119 A 
BRANCH  32  33
ATOM     33  O   UNL     1      11.769   9.840  -8.008  1.00  0.00    -0.490 OA
BRANCH  33  34
ATOM     34  C   UNL     1      11.474  11.066  -8.671  1.00  0.00     0.257 C 
BRANCH  34  35
ATOM     35  C   UNL     1      11.765  12.177  -7.707  1.00  0.00     0.006 C 
ATOM     36  C   UNL     1      10.889  13.125  -7.344  1.00  0.00     0.007 C 
ENDBRANCH  34  35
ENDBRANCH  33  34
ENDBRANCH  32  33
ENDBRANCH   8  27
TORSDOF 8
ENDMDL
MODEL 6
REMARK VINA RESULT:    -9.712      1.771     11.193
REMARK INTER + INTRA:         -19.307
REMARK INTER:                 -16.980
REMARK INTRA:                  -2.327
REMARK UNBOUND:                -0.511
REMARK SMILES C=CCOc1ccc(-c2ccc3ccc4c(-c5ccc(OCC=C)cc5)ccc5ccc2c3c54)cc1
REMARK SMILES IDX 9 1 10 2 11 3 12 4 13 5 14 6 15 7 16 8 27 9 28 10 29 11
REMARK SMILES IDX 30 12 31 13 32 14 33 15 34 16 8 17 5 18 6 19 36 20 7 21
REMARK SMILES IDX 35 22 4 23 3 24 2 25 1 26 17 27 18 28 26 29 19 30 25 31
REMARK SMILES IDX 20 32 21 33 22 34 23 35 24 36
REMARK H PARENT
REMARK Flexibility Score: inf
ROOT
ATOM      1  C   UNL     1       7.360   8.044  -5.027  1.00  0.00    -0.010 A 
ATOM      2  C   UNL     1       7.385   9.385  -4.611  1.00  0.00     0.010 A 
ATOM      3  C   UNL     1       6.353   9.918  -3.845  1.00  0.00     0.009 A 
ATOM      4  C   UNL     1       5.266   9.124  -3.471  1.00  0.00    -0.017 A 
ATOM      5  C   UNL     1       4.231   9.661  -2.704  1.00  0.00     0.009 A 
ATOM      6  C   UNL     1       3.142   8.875  -2.327  1.00  0.00     0.010 A 
ATOM      7  C   UNL     1       3.043   7.519  -2.701  1.00  0.00    -0.009 A 
ATOM      8  C   UNL     1       1.944   6.694  -2.328  1.00  0.00    -0.010 A 
ATOM      9  C   UNL     1       1.918   5.354  -2.744  1.00  0.00     0.010 A 
ATOM     10  C   UNL     1       2.949   4.821  -3.512  1.00  0.00     0.009 A 
ATOM     11  C   UNL     1       4.037   5.616  -3.887  1.00  0.00    -0.017 A 
ATOM     12  C   UNL     1       5.070   5.079  -4.656  1.00  0.00     0.009 A 
ATOM     13  C   UNL     1       6.159   5.865  -5.034  1.00  0.00     0.010 A 
ATOM     14  C   UNL     1       6.260   7.219  -4.656  1.00  0.00    -0.009 A 
ATOM     15  C   UNL     1       5.209   7.768  -3.873  1.00  0.00    -0.002 A 
ATOM     16  C   UNL     1       4.093   6.971  -3.484  1.00  0.00    -0.002 A 
ENDROOT
BRANCH   1  17
ATOM     17  C   UNL     1       8.485   7.551  -5.836  1.00  0.00    -0.018 A 
ATOM     18  C   UNL     1      10.642   6.617  -7.401  1.00  0.00     0.119 A 
ATOM     19  C   UNL     1      10.792   6.817  -6.026  1.00  0.00     0.047 A 
ATOM     20  C   UNL     1       9.412   6.894  -7.995  1.00  0.00     0.047 A 
ATOM     21  C   UNL     1       9.727   7.279  -5.249  1.00  0.00     0.012 A 
ATOM     22  C   UNL     1       8.343   7.356  -7.218  1.00  0.00     0.012 A 
BRANCH  18  23
ATOM     23  O   UNL     1      11.769   6.173  -8.034  1.00  0.00    -0.490 OA
BRANCH  23  24
ATOM     24  C   UNL     1      11.645   5.202  -9.072  1.00  0.00     0.257 C 
BRANCH  24  25
ATOM     25  C   UNL     1      11.185   3.893  -8.498  1.00  0.00     0.006 C 
ATOM     26  C   UNL     1      10.152   3.178  -8.965  1.00  0.00     0.007 C 
ENDBRANCH  24  25
ENDBRANCH  23  24
ENDBRANCH  18  23
ENDBRANCH   1  17
BRANCH   8  27
ATOM     27  C   UNL     1       0.822   7.189  -1.514  1.00  0.00    -0.018 A 
ATOM     28  C   UNL     1       0.214   6.366  -0.555  1.00  0.00     0.012 A 
ATOM     29  C   UNL     1       0.333   8.491  -1.684  1.00  0.00     0.012 A 
ATOM     30  C   UNL     1      -0.853   6.832   0.222  1.00  0.00     0.047 A 
ATOM     31  C   UNL     1      -0.731   8.955  -0.907  1.00  0.00     0.047 A 
ATOM     32  C   UNL     1      -1.328   8.132   0.050  1.00  0.00     0.119 A 
BRANCH  32  33
ATOM     33  O   UNL     1      -2.356   8.713   0.740  1.00  0.00    -0.490 OA
BRANCH  33  34
ATOM     34  C   UNL     1      -2.037   9.330   1.984  1.00  0.00     0.257 C 
BRANCH  34  35
ATOM     35  C   UNL     1      -2.488  10.757   1.905  1.00  0.00     0.006 C 
ATOM     36  C   UNL     1      -1.787  11.752   1.343  1.00  0.00     0.007 C 
ENDBRANCH  34  35
ENDBRANCH  33  34
ENDBRANCH  32  33
ENDBRANCH   8  27
TORSDOF 8
REMARK SMILES C=CCOc1ccc(-c2ccc3ccc4c(-c5ccc(OCC=C)cc5)ccc5ccc2c3c54)cc1
REMARK SMILES IDX 9 1 10 2 11 3 12 4 13 5 14 6 15 7 16 8 27 9 28 10 29 11
REMARK SMILES IDX 30 12 31 13 32 14 33 15 34 16 8 17 5 18 6 19 36 20 7 21
REMARK SMILES IDX 35 22 4 23 3 24 2 25 1 26 17 27 18 28 26 29 19 30 25 31
REMARK SMILES IDX 20 32 21 33 22 34 23 35 24 36
REMARK H PARENT
REMARK Flexibility Score: inf
ROOT
ATOM      1  C   UNL     1       3.558   6.619   0.852  1.00  0.00    -0.010 A 
ATOM      2  C   UNL     1       3.037   5.323   0.701  1.00  0.00     0.010 A 
ATOM      3  C   UNL     1       3.732   4.349  -0.009  1.00  0.00     0.009 A 
ATOM      4  C   UNL     1       4.970   4.642  -0.587  1.00  0.00    -0.017 A 
ATOM      5  C   UNL     1       5.664   3.664  -1.300  1.00  0.00     0.009 A 
ATOM      6  C   UNL     1       6.900   3.948  -1.881  1.00  0.00     0.010 A 
ATOM      7  C   UNL     1       7.493   5.223  -1.773  1.00  0.00    -0.009 A 
ATOM      8  C   UNL     1       8.754   5.540  -2.353  1.00  0.00    -0.010 A 
ATOM      9  C   UNL     1       9.274   6.835  -2.205  1.00  0.00     0.010 A 
ATOM     10  C   UNL     1       8.578   7.810  -1.496  1.00  0.00     0.009 A 
ATOM     11  C   UNL     1       7.340   7.517  -0.917  1.00  0.00    -0.017 A 
ATOM     12  C   UNL     1       6.644   8.496  -0.207  1.00  0.00     0.009 A 
ATOM     13  C   UNL     1       5.408   8.212   0.374  1.00  0.00     0.010 A 
ATOM     14  C   UNL     1       4.818   6.937   0.270  1.00  0.00    -0.009 A 
ATOM     15  C   UNL     1       5.523   5.938  -0.454  1.00  0.00    -0.002 A 
ATOM     16  C   UNL     1       6.787   6.222  -1.050  1.00  0.00    -0.002 A 
ENDROOT
BRANCH   1  17
ATOM     17  C   UNL     1       2.766   7.597   1.614  1.00  0.00    -0.018 A 
ATOM     18  C   UNL     1       1.257   9.474   3.088  1.00  0.00     0.119 A 
ATOM     19  C   UNL     1       1.685   9.764   1.790  1.00  0.00     0.047 A 
ATOM     20  C   UNL     1       1.594   8.245   3.653  1.00  0.00     0.047 A 
ATOM     21  C   UNL     1       2.431   8.838   1.058  1.00  0.00     0.012 A 
ATOM     22  C   UNL     1       2.342   7.314   2.920  1.00  0.00     0.012 A 
BRANCH  18  23
ATOM     23  O   UNL     1       0.546  10.475   3.687  1.00  0.00    -0.490 OA
BRANCH  23  24
ATOM     24  C   UNL     1       1.160  11.238   4.725  1.00  0.00     0.257 C 
BRANCH  24  25
ATOM     25  C   UNL     1       0.997  12.705   4.448  1.00  0.00     0.006 C 
ATOM     26  C   UNL     1       1.256  13.291   3.271  1.00  0.00     0.007 C 
ENDBRANCH  24  25
ENDBRANCH  23  24
ENDBRANCH  18  23
ENDBRANCH   1  17
BRANCH   8  27
ATOM     27  C   UNL     1       9.546   4.558  -3.111  1.00  0.00    -0.018 A 
ATOM     28  C   UNL     1      10.874   4.280  -2.756  1.00  0.00     0.012 A 
ATOM     29  C   UNL     1       8.993   3.885  -4.209  1.00  0.00     0.012 A 
ATOM     30  C   UNL     1      11.631   3.345  -3.473  1.00  0.00     0.047 A 
ATOM     31  C   UNL     1       9.750   2.952  -4.923  1.00  0.00     0.047 A 
ATOM     32  C   UNL     1      11.070   2.676  -4.559  1.00  0.00     0.119 A 
BRANCH  32  33
ATOM     33  O   UNL     1      11.692   1.742  -5.342  1.00  0.00    -0.490 OA
BRANCH  33  34
ATOM     34  C   UNL     1      10.864   0.937  -6.175  1.00  0.00     0.257 C 
BRANCH  34  35
ATOM     35  C   UNL     1      10.666  -0.375  -5.477  1.00  0.00     0.006 C 
ATOM     36  C   UNL     1       9.501  -0.806  -4.971  1.00  0.00     0.007 C 
ENDBRANCH  34  35
ENDBRANCH  33  34
ENDBRANCH  32  33
ENDBRANCH   8  27
TORSDOF 8
ENDMDL
MODEL 7
REMARK VINA RESULT:    -9.689      1.469      8.324
REMARK INTER + INTRA:         -19.262
REMARK INTER:                 -18.042
REMARK INTRA:                  -1.220
REMARK UNBOUND:                -0.511
REMARK SMILES C=CCOc1ccc(-c2ccc3ccc4c(-c5ccc(OCC=C)cc5)ccc5ccc2c3c54)cc1
REMARK SMILES IDX 9 1 10 2 11 3 12 4 13 5 14 6 15 7 16 8 27 9 28 10 29 11
REMARK SMILES IDX 30 12 31 13 32 14 33 15 34 16 8 17 5 18 6 19 36 20 7 21
REMARK SMILES IDX 35 22 4 23 3 24 2 25 1 26 17 27 18 28 26 29 19 30 25 31
REMARK SMILES IDX 20 32 21 33 22 34 23 35 24 36
REMARK H PARENT
REMARK Flexibility Score: inf
ROOT
ATOM      1  C   UNL     1       8.565   7.280  -2.496  1.00  0.00    -0.010 A 
ATOM      2  C   UNL     1       8.976   6.013  -2.050  1.00  0.00     0.010 A 
ATOM      3  C   UNL     1       8.209   5.290  -1.141  1.00  0.00     0.009 A 
ATOM      4  C   UNL     1       7.009   5.813  -0.652  1.00  0.00    -0.017 A 
ATOM      5  C   UNL     1       6.244   5.087   0.261  1.00  0.00     0.009 A 
ATOM      6  C   UNL     1       5.045   5.602   0.754  1.00  0.00     0.010 A 
ATOM      7  C   UNL     1       4.562   6.865   0.355  1.00  0.00    -0.009 A 
ATOM      8  C   UNL     1       3.342   7.414   0.840  1.00  0.00    -0.010 A 
ATOM      9  C   UNL     1       2.932   8.681   0.397  1.00  0.00     0.010 A 
ATOM     10  C   UNL     1       3.699   9.405  -0.511  1.00  0.00     0.009 A 
ATOM     11  C   UNL     1       4.900   8.882  -1.001  1.00  0.00    -0.017 A 
ATOM     12  C   UNL     1       5.667   9.610  -1.911  1.00  0.00     0.009 A 
ATOM     13  C   UNL     1       6.866   9.094  -2.404  1.00  0.00     0.010 A 
ATOM     14  C   UNL     1       7.346   7.830  -2.009  1.00  0.00    -0.009 A 
ATOM     15  C   UNL     1       6.567   7.087  -1.081  1.00  0.00    -0.002 A 
ATOM     16  C   UNL     1       5.341   7.608  -0.572  1.00  0.00    -0.002 A 
ENDROOT
BRANCH   1  17
ATOM     17  C   UNL     1       9.427   7.986  -3.455  1.00  0.00    -0.018 A 
ATOM     18  C   UNL     1      11.089   9.328  -5.303  1.00  0.00     0.119 A 
ATOM     19  C   UNL     1       9.712   9.562  -5.281  1.00  0.00     0.047 A 
ATOM     20  C   UNL     1      11.634   8.413  -4.405  1.00  0.00     0.047 A 
ATOM     21  C   UNL     1       8.887   8.901  -4.368  1.00  0.00     0.012 A 
ATOM     22  C   UNL     1      10.809   7.749  -3.488  1.00  0.00     0.012 A 
BRANCH  18  23
ATOM     23  O   UNL     1      11.768  10.036  -6.254  1.00  0.00    -0.490 OA
BRANCH  23  24
ATOM     24  C   UNL     1      11.666   9.640  -7.621  1.00  0.00     0.257 C 
BRANCH  24  25
ATOM     25  C   UNL     1      11.387   8.167  -7.708  1.00  0.00     0.006 C 
ATOM     26  C   UNL     1      10.583   7.597  -8.617  1.00  0.00     0.007 C 
ENDBRANCH  24  25
ENDBRANCH  23  24
ENDBRANCH  18  23
ENDBRANCH   1  17
BRANCH   8  27
ATOM     27  C   UNL     1       2.478   6.703   1.797  1.00  0.00    -0.018 A 
ATOM     28  C   UNL     1       1.996   7.349   2.945  1.00  0.00     0.012 A 
ATOM     29  C   UNL     1       2.124   5.364   1.585  1.00  0.00     0.012 A 
ATOM     30  C   UNL     1       1.172   6.678   3.857  1.00  0.00     0.047 A 
ATOM     31  C   UNL     1       1.303   4.696   2.497  1.00  0.00     0.047 A 
ATOM     32  C   UNL     1       0.821   5.347   3.634  1.00  0.00     0.119 A 
BRANCH  32  33
ATOM     33  O   UNL     1       0.028   4.576   4.439  1.00  0.00    -0.490 OA
BRANCH  33  34
ATOM     34  C   UNL     1      -0.384   3.312   3.925  1.00  0.00     0.257 C 
BRANCH  34  35
ATOM     35  C   UNL     1      -1.870   3.371   3.731  1.00  0.00     0.006 C 
ATOM     36  C   UNL     1      -2.496   4.158   2.845  1.00  0.00     0.007 C 
ENDBRANCH  34  35
ENDBRANCH  33  34
ENDBRANCH  32  33
ENDBRANCH   8  27
TORSDOF 8
REMARK SMILES C=CCOc1ccc(-c2ccc3ccc4c(-c5ccc(OCC=C)cc5)ccc5ccc2c3c54)cc1
REMARK SMILES IDX 9 1 10 2 11 3 12 4 13 5 14 6 15 7 16 8 27 9 28 10 29 11
REMARK SMILES IDX 30 12 31 13 32 14 33 15 34 16 8 17 5 18 6 19 36 20 7 21
REMARK SMILES IDX 35 22 4 23 3 24 2 25 1 26 17 27 18 28 26 29 19 30 25 31
REMARK SMILES IDX 20 32 21 33 22 34 23 35 24 36
REMARK H PARENT
REMARK Flexibility Score: inf
ROOT
ATOM      1  C   UNL     1       7.255   5.938  -5.825  1.00  0.00    -0.010 A 
ATOM      2  C   UNL     1       7.001   7.208  -6.369  1.00  0.00     0.010 A 
ATOM      3  C   UNL     1       5.888   7.947  -5.977  1.00  0.00     0.009 A 
ATOM      4  C   UNL     1       4.998   7.436  -5.029  1.00  0.00    -0.017 A 
ATOM      5  C   UNL     1       3.882   8.178  -4.639  1.00  0.00     0.009 A 
ATOM      6  C   UNL     1       2.989   7.676  -3.692  1.00  0.00     0.010 A 
ATOM      7  C   UNL     1       3.174   6.412  -3.096  1.00  0.00    -0.009 A 
ATOM      8  C   UNL     1       2.279   5.876  -2.127  1.00  0.00    -0.010 A 
ATOM      9  C   UNL     1       2.532   4.607  -1.584  1.00  0.00     0.010 A 
ATOM     10  C   UNL     1       3.643   3.867  -1.978  1.00  0.00     0.009 A 
ATOM     11  C   UNL     1       4.534   4.377  -2.927  1.00  0.00    -0.017 A 
ATOM     12  C   UNL     1       5.649   3.634  -3.319  1.00  0.00     0.009 A 
ATOM     13  C   UNL     1       6.542   4.136  -4.265  1.00  0.00     0.010 A 
ATOM     14  C   UNL     1       6.359   5.402  -4.857  1.00  0.00    -0.009 A 
ATOM     15  C   UNL     1       5.225   6.160  -4.460  1.00  0.00    -0.002 A 
ATOM     16  C   UNL     1       4.308   5.653  -3.494  1.00  0.00    -0.002 A 
ENDROOT
BRANCH   1  17
ATOM     17  C   UNL     1       8.449   5.215  -6.288  1.00  0.00    -0.018 A 
ATOM     18  C   UNL     1      10.743   3.820  -7.163  1.00  0.00     0.119 A 
ATOM     19  C   UNL     1       9.559   3.782  -7.905  1.00  0.00     0.047 A 
ATOM     20  C   UNL     1      10.776   4.549  -5.976  1.00  0.00     0.047 A 
ATOM     21  C   UNL     1       8.423   4.472  -7.475  1.00  0.00     0.012 A 
ATOM     22  C   UNL     1       9.637   5.242  -5.544  1.00  0.00     0.012 A 
BRANCH  18  23
ATOM     23  O   UNL     1      11.768   3.092  -7.697  1.00  0.00    -0.490 OA
BRANCH  23  24
ATOM     24  C   UNL     1      11.486   1.823  -8.287  1.00  0.00     0.257 C 
BRANCH  24  25
ATOM     25  C   UNL     1      11.568   0.744  -7.246  1.00  0.00     0.006 C 
ATOM     26  C   UNL     1      10.508   0.168  -6.661  1.00  0.00     0.007 C 
ENDBRANCH  24  25
ENDBRANCH  23  24
ENDBRANCH  18  23
ENDBRANCH   1  17
BRANCH   8  27
ATOM     27  C   UNL     1       1.087   6.603  -1.662  1.00  0.00    -0.018 A 
ATOM     28  C   UNL     1       0.884   7.946  -2.012  1.00  0.00     0.012 A 
ATOM     29  C   UNL     1       0.133   5.971  -0.854  1.00  0.00     0.012 A 
ATOM     30  C   UNL     1      -0.250   8.641  -1.574  1.00  0.00     0.047 A 
ATOM     31  C   UNL     1      -0.998   6.667  -0.417  1.00  0.00     0.047 A 
ATOM     32  C   UNL     1      -1.197   8.002  -0.775  1.00  0.00     0.119 A 
BRANCH  32  33
ATOM     33  O   UNL     1      -2.344   8.559  -0.281  1.00  0.00    -0.490 OA
BRANCH  33  34
ATOM     34  C   UNL     1      -2.200   9.666   0.605  1.00  0.00     0.257 C 
BRANCH  34  35
ATOM     35  C   UNL     1      -1.254   9.249   1.692  1.00  0.00     0.006 C 
ATOM     36  C   UNL     1      -1.616   8.938   2.945  1.00  0.00     0.007 C 
ENDBRANCH  34  35
ENDBRANCH  33  34
ENDBRANCH  32  33
ENDBRANCH   8  27
TORSDOF 8
ENDMDL
MODEL 8
REMARK VINA RESULT:    -9.652      1.871      7.691
REMARK INTER + INTRA:         -19.192
REMARK INTER:                 -17.251
REMARK INTRA:                  -1.941
REMARK UNBOUND:                -0.511
REMARK SMILES C=CCOc1ccc(-c2ccc3ccc4c(-c5ccc(OCC=C)cc5)ccc5ccc2c3c54)cc1
REMARK SMILES IDX 9 1 10 2 11 3 12 4 13 5 14 6 15 7 16 8 27 9 28 10 29 11
REMARK SMILES IDX 30 12 31 13 32 14 33 15 34 16 8 17 5 18 6 19 36 20 7 21
REMARK SMILES IDX 35 22 4 23 3 24 2 25 1 26 17 27 18 28 26 29 19 30 25 31
REMARK SMILES IDX 20 32 21 33 22 34 23 35 24 36
REMARK H PARENT
REMARK Flexibility Score: inf
ROOT
ATOM      1  C   UNL     1       3.385   6.619   0.947  1.00  0.00    -0.010 A 
ATOM      2  C   UNL     1       2.849   5.329   0.797  1.00  0.00     0.010 A 
ATOM      3  C   UNL     1       3.535   4.345   0.091  1.00  0.00     0.009 A 
ATOM      4  C   UNL     1       4.778   4.624  -0.484  1.00  0.00    -0.017 A 
ATOM      5  C   UNL     1       5.463   3.636  -1.193  1.00  0.00     0.009 A 
ATOM      6  C   UNL     1       6.704   3.905  -1.771  1.00  0.00     0.010 A 
ATOM      7  C   UNL     1       7.311   5.173  -1.664  1.00  0.00    -0.009 A 
ATOM      8  C   UNL     1       8.577   5.475  -2.241  1.00  0.00    -0.010 A 
ATOM      9  C   UNL     1       9.112   6.764  -2.093  1.00  0.00     0.010 A 
ATOM     10  C   UNL     1       8.424   7.749  -1.389  1.00  0.00     0.009 A 
ATOM     11  C   UNL     1       7.181   7.471  -0.813  1.00  0.00    -0.017 A 
ATOM     12  C   UNL     1       6.494   8.459  -0.107  1.00  0.00     0.009 A 
ATOM     13  C   UNL     1       5.254   8.190   0.471  1.00  0.00     0.010 A 
ATOM     14  C   UNL     1       4.649   6.921   0.368  1.00  0.00    -0.009 A 
ATOM     15  C   UNL     1       5.346   5.913  -0.352  1.00  0.00    -0.002 A 
ATOM     16  C   UNL     1       6.614   6.182  -0.945  1.00  0.00    -0.002 A 
ENDROOT
BRANCH   1  17
ATOM     17  C   UNL     1       2.602   7.607   1.704  1.00  0.00    -0.018 A 
ATOM     18  C   UNL     1       1.108   9.503   3.172  1.00  0.00     0.119 A 
ATOM     19  C   UNL     1       1.672   9.839   1.938  1.00  0.00     0.047 A 
ATOM     20  C   UNL     1       1.301   8.218   3.677  1.00  0.00     0.047 A 
ATOM     21  C   UNL     1       2.411   8.904   1.210  1.00  0.00     0.012 A 
ATOM     22  C   UNL     1       2.041   7.278   2.947  1.00  0.00     0.012 A 
BRANCH  18  23
ATOM     23  O   UNL     1       0.422  10.518   3.776  1.00  0.00    -0.490 OA
BRANCH  23  24
ATOM     24  C   UNL     1       1.082  11.762   4.006  1.00  0.00     0.257 C 
BRANCH  24  25
ATOM     25  C   UNL     1       0.226  12.645   4.868  1.00  0.00     0.006 C 
ATOM     26  C   UNL     1      -0.242  13.846   4.499  1.00  0.00     0.007 C 
ENDBRANCH  24  25
ENDBRANCH  23  24
ENDBRANCH  18  23
ENDBRANCH   1  17
BRANCH   8  27
ATOM     27  C   UNL     1       9.360   4.483  -2.995  1.00  0.00    -0.018 A 
ATOM     28  C   UNL     1      10.669   4.158  -2.609  1.00  0.00     0.012 A 
ATOM     29  C   UNL     1       8.817   3.845  -4.118  1.00  0.00     0.012 A 
ATOM     30  C   UNL     1      11.417   3.214  -3.322  1.00  0.00     0.047 A 
ATOM     31  C   UNL     1       9.566   2.902  -4.828  1.00  0.00     0.047 A 
ATOM     32  C   UNL     1      10.866   2.580  -4.435  1.00  0.00     0.119 A 
BRANCH  32  33
ATOM     33  O   UNL     1      11.482   1.642  -5.216  1.00  0.00    -0.490 OA
BRANCH  33  34
ATOM     34  C   UNL     1      11.769   0.382  -4.615  1.00  0.00     0.257 C 
BRANCH  34  35
ATOM     35  C   UNL     1      10.828  -0.622  -5.210  1.00  0.00     0.006 C 
ATOM     36  C   UNL     1      10.197  -0.479  -6.384  1.00  0.00     0.007 C 
ENDBRANCH  34  35
ENDBRANCH  33  34
ENDBRANCH  32  33
ENDBRANCH   8  27
TORSDOF 8
REMARK SMILES C=CCOc1ccc(-c2ccc3ccc4c(-c5ccc(OCC=C)cc5)ccc5ccc2c3c54)cc1
REMARK SMILES IDX 9 1 10 2 11 3 12 4 13 5 14 6 15 7 16 8 27 9 28 10 29 11
REMARK SMILES IDX 30 12 31 13 32 14 33 15 34 16 8 17 5 18 6 19 36 20 7 21
REMARK SMILES IDX 35 22 4 23 3 24 2 25 1 26 17 27 18 28 26 29 19 30 25 31
REMARK SMILES IDX 20 32 21 33 22 34 23 35 24 36
REMARK H PARENT
REMARK Flexibility Score: inf
ROOT
ATOM      1  C   UNL     1       2.061   6.830  -2.374  1.00  0.00    -0.010 A 
ATOM      2  C   UNL     1       1.977   5.492  -2.790  1.00  0.00     0.010 A 
ATOM      3  C   UNL     1       2.984   4.915  -3.560  1.00  0.00     0.009 A 
ATOM      4  C   UNL     1       4.104   5.662  -3.934  1.00  0.00    -0.017 A 
ATOM      5  C   UNL     1       5.111   5.082  -4.707  1.00  0.00     0.009 A 
ATOM      6  C   UNL     1       6.233   5.820  -5.084  1.00  0.00     0.010 A 
ATOM      7  C   UNL     1       6.395   7.168  -4.704  1.00  0.00    -0.009 A 
ATOM      8  C   UNL     1       7.530   7.944  -5.073  1.00  0.00    -0.010 A 
ATOM      9  C   UNL     1       7.614   9.282  -4.659  1.00  0.00     0.010 A 
ATOM     10  C   UNL     1       6.606   9.859  -3.891  1.00  0.00     0.009 A 
ATOM     11  C   UNL     1       5.485   9.113  -3.517  1.00  0.00    -0.017 A 
ATOM     12  C   UNL     1       4.476   9.694  -2.746  1.00  0.00     0.009 A 
ATOM     13  C   UNL     1       3.354   8.956  -2.369  1.00  0.00     0.010 A 
ATOM     14  C   UNL     1       3.195   7.607  -2.745  1.00  0.00    -0.009 A 
ATOM     15  C   UNL     1       4.220   7.013  -3.530  1.00  0.00    -0.002 A 
ATOM     16  C   UNL     1       5.369   7.762  -3.920  1.00  0.00    -0.002 A 
ENDROOT
BRANCH   1  17
ATOM     17  C   UNL     1       0.959   7.372  -1.565  1.00  0.00    -0.018 A 
ATOM     18  C   UNL     1      -1.165   8.418  -0.025  1.00  0.00     0.119 A 
ATOM     19  C   UNL     1      -0.824   7.065   0.056  1.00  0.00     0.047 A 
ATOM     20  C   UNL     1      -0.448   9.247  -0.886  1.00  0.00     0.047 A 
ATOM     21  C   UNL     1       0.226   6.545  -0.704  1.00  0.00     0.012 A 
ATOM     22  C   UNL     1       0.606   8.727  -1.649  1.00  0.00     0.012 A 
BRANCH  18  23
ATOM     23  O   UNL     1      -2.217   8.785   0.765  1.00  0.00    -0.490 OA
BRANCH  23  24
ATOM     24  C   UNL     1      -2.804  10.074   0.588  1.00  0.00     0.257 C 
BRANCH  24  25
ATOM     25  C   UNL     1      -2.517  10.937   1.783  1.00  0.00     0.006 C 
ATOM     26  C   UNL     1      -1.997  12.170   1.723  1.00  0.00     0.007 C 
ENDBRANCH  24  25
ENDBRANCH  23  24
ENDBRANCH  18  23
ENDBRANCH   1  17
BRANCH   8  27
ATOM     27  C   UNL     1       8.634   7.399  -5.879  1.00  0.00    -0.018 A 
ATOM     28  C   UNL     1       9.867   7.087  -5.289  1.00  0.00     0.012 A 
ATOM     29  C   UNL     1       8.478   7.184  -7.255  1.00  0.00     0.012 A 
ATOM     30  C   UNL     1      10.920   6.566  -6.052  1.00  0.00     0.047 A 
ATOM     31  C   UNL     1       9.530   6.664  -8.014  1.00  0.00     0.047 A 
ATOM     32  C   UNL     1      10.753   6.351  -7.419  1.00  0.00     0.119 A 
BRANCH  32  33
ATOM     33  O   UNL     1      11.692   5.849  -8.277  1.00  0.00    -0.490 OA
BRANCH  33  34
ATOM     34  C   UNL     1      11.298   4.758  -9.105  1.00  0.00     0.257 C 
BRANCH  34  35
ATOM     35  C   UNL     1      11.117   3.564  -8.216  1.00  0.00     0.006 C 
ATOM     36  C   UNL     1      10.369   2.492  -8.515  1.00  0.00     0.007 C 
ENDBRANCH  34  35
ENDBRANCH  33  34
ENDBRANCH  32  33
ENDBRANCH   8  27
TORSDOF 8
ENDMDL
MODEL 9
REMARK VINA RESULT:    -9.551      1.546      8.560
REMARK INTER + INTRA:         -18.995
REMARK INTER:                 -17.893
REMARK INTRA:                  -1.103
REMARK UNBOUND:                -0.511
REMARK SMILES C=CCOc1ccc(-c2ccc3ccc4c(-c5ccc(OCC=C)cc5)ccc5ccc2c3c54)cc1
REMARK SMILES IDX 9 1 10 2 11 3 12 4 13 5 14 6 15 7 16 8 27 9 28 10 29 11
REMARK SMILES IDX 30 12 31 13 32 14 33 15 34 16 8 17 5 18 6 19 36 20 7 21
REMARK SMILES IDX 35 22 4 23 3 24 2 25 1 26 17 27 18 28 26 29 19 30 25 31
REMARK SMILES IDX 20 32 21 33 22 34 23 35 24 36
REMARK H PARENT
REMARK Flexibility Score: inf
ROOT
ATOM      1  C   UNL     1       7.240   5.762  -5.713  1.00  0.00    -0.010 A 
ATOM      2  C   UNL     1       6.965   6.999  -6.319  1.00  0.00     0.010 A 
ATOM      3  C   UNL     1       5.846   7.743  -5.955  1.00  0.00     0.009 A 
ATOM      4  C   UNL     1       4.971   7.271  -4.973  1.00  0.00    -0.017 A 
ATOM      5  C   UNL     1       3.849   8.018  -4.611  1.00  0.00     0.009 A 
ATOM      6  C   UNL     1       2.971   7.555  -3.632  1.00  0.00     0.010 A 
ATOM      7  C   UNL     1       3.178   6.325  -2.974  1.00  0.00    -0.009 A 
ATOM      8  C   UNL     1       2.299   5.829  -1.970  1.00  0.00    -0.010 A 
ATOM      9  C   UNL     1       2.572   4.592  -1.365  1.00  0.00     0.010 A 
ATOM     10  C   UNL     1       3.689   3.847  -1.731  1.00  0.00     0.009 A 
ATOM     11  C   UNL     1       4.565   4.319  -2.713  1.00  0.00    -0.017 A 
ATOM     12  C   UNL     1       5.685   3.570  -3.077  1.00  0.00     0.009 A 
ATOM     13  C   UNL     1       6.564   4.033  -4.057  1.00  0.00     0.010 A 
ATOM     14  C   UNL     1       6.360   5.265  -4.711  1.00  0.00    -0.009 A 
ATOM     15  C   UNL     1       5.219   6.029  -4.342  1.00  0.00    -0.002 A 
ATOM     16  C   UNL     1       4.317   5.561  -3.343  1.00  0.00    -0.002 A 
ENDROOT
BRANCH   1  17
ATOM     17  C   UNL     1       8.439   5.031  -6.150  1.00  0.00    -0.018 A 
ATOM     18  C   UNL     1      10.745   3.624  -6.974  1.00  0.00     0.119 A 
ATOM     19  C   UNL     1       9.485   3.282  -7.472  1.00  0.00     0.047 A 
ATOM     20  C   UNL     1      10.849   4.666  -6.054  1.00  0.00     0.047 A 
ATOM     21  C   UNL     1       8.342   3.976  -7.067  1.00  0.00     0.012 A 
ATOM     22  C   UNL     1       9.705   5.363  -5.647  1.00  0.00     0.012 A 
BRANCH  18  23
ATOM     23  O   UNL     1      11.769   2.854  -7.449  1.00  0.00    -0.490 OA
BRANCH  23  24
ATOM     24  C   UNL     1      11.523   1.482  -7.755  1.00  0.00     0.257 C 
BRANCH  24  25
ATOM     25  C   UNL     1      11.738   0.637  -6.533  1.00  0.00     0.006 C 
ATOM     26  C   UNL     1      10.767   0.246  -5.697  1.00  0.00     0.007 C 
ENDBRANCH  24  25
ENDBRANCH  23  24
ENDBRANCH  18  23
ENDBRANCH   1  17
BRANCH   8  27
ATOM     27  C   UNL     1       1.102   6.564  -1.531  1.00  0.00    -0.018 A 
ATOM     28  C   UNL     1       0.183   5.979  -0.647  1.00  0.00     0.012 A 
ATOM     29  C   UNL     1       0.851   7.864  -1.991  1.00  0.00     0.012 A 
ATOM     30  C   UNL     1      -0.956   6.675  -0.225  1.00  0.00     0.047 A 
ATOM     31  C   UNL     1      -0.286   8.558  -1.568  1.00  0.00     0.047 A 
ATOM     32  C   UNL     1      -1.193   7.970  -0.684  1.00  0.00     0.119 A 
BRANCH  32  33
ATOM     33  O   UNL     1      -2.259   8.761  -0.353  1.00  0.00    -0.490 OA
BRANCH  33  34
ATOM     34  C   UNL     1      -1.977   9.979   0.331  1.00  0.00     0.257 C 
BRANCH  34  35
ATOM     35  C   UNL     1      -1.625   9.628   1.745  1.00  0.00     0.006 C 
ATOM     36  C   UNL     1      -0.623  10.179   2.445  1.00  0.00     0.007 C 
ENDBRANCH  34  35
ENDBRANCH  33  34
ENDBRANCH  32  33
ENDBRANCH   8  27
TORSDOF 8
REMARK SMILES C=CCOc1ccc(-c2ccc3ccc4c(-c5ccc(OCC=C)cc5)ccc5ccc2c3c54)cc1
REMARK SMILES IDX 9 1 10 2 11 3 12 4 13 5 14 6 15 7 16 8 27 9 28 10 29 11
REMARK SMILES IDX 30 12 31 13 32 14 33 15 34 16 8 17 5 18 6 19 36 20 7 21
REMARK SMILES IDX 35 22 4 23 3 24 2 25 1 26 17 27 18 28 26 29 19 30 25 31
REMARK SMILES IDX 20 32 21 33 22 34 23 35 24 36
REMARK H PARENT
REMARK Flexibility Score: inf
ROOT
ATOM      1  C   UNL     1       8.655   7.359  -2.628  1.00  0.00    -0.010 A 
ATOM      2  C   UNL     1       9.086   6.122  -2.122  1.00  0.00     0.010 A 
ATOM      3  C   UNL     1       8.342   5.440  -1.164  1.00  0.00     0.009 A 
ATOM      4  C   UNL     1       7.144   5.976  -0.684  1.00  0.00    -0.017 A 
ATOM      5  C   UNL     1       6.400   5.292   0.278  1.00  0.00     0.009 A 
ATOM      6  C   UNL     1       5.204   5.820   0.762  1.00  0.00     0.010 A 
ATOM      7  C   UNL     1       4.700   7.055   0.303  1.00  0.00    -0.009 A 
ATOM      8  C   UNL     1       3.481   7.616   0.778  1.00  0.00    -0.010 A 
ATOM      9  C   UNL     1       3.050   8.853   0.274  1.00  0.00     0.010 A 
ATOM     10  C   UNL     1       3.795   9.536  -0.683  1.00  0.00     0.009 A 
ATOM     11  C   UNL     1       4.994   9.000  -1.163  1.00  0.00    -0.017 A 
ATOM     12  C   UNL     1       5.739   9.686  -2.123  1.00  0.00     0.009 A 
ATOM     13  C   UNL     1       6.936   9.158  -2.606  1.00  0.00     0.010 A 
ATOM     14  C   UNL     1       7.437   7.921  -2.152  1.00  0.00    -0.009 A 
ATOM     15  C   UNL     1       6.681   7.221  -1.173  1.00  0.00    -0.002 A 
ATOM     16  C   UNL     1       5.457   7.755  -0.674  1.00  0.00    -0.002 A 
ENDROOT
BRANCH   1  17
ATOM     17  C   UNL     1       9.494   8.022  -3.637  1.00  0.00    -0.018 A 
ATOM     18  C   UNL     1      11.112   9.281  -5.580  1.00  0.00     0.119 A 
ATOM     19  C   UNL     1       9.730   9.484  -5.563  1.00  0.00     0.047 A 
ATOM     20  C   UNL     1      11.685   8.438  -4.628  1.00  0.00     0.047 A 
ATOM     21  C   UNL     1       8.927   8.863  -4.603  1.00  0.00     0.012 A 
ATOM     22  C   UNL     1      10.881   7.815  -3.665  1.00  0.00     0.012 A 
BRANCH  18  23
ATOM     23  O   UNL     1      11.769   9.942  -6.579  1.00  0.00    -0.490 OA
BRANCH  23  24
ATOM     24  C   UNL     1      11.766   9.391  -7.895  1.00  0.00     0.257 C 
BRANCH  24  25
ATOM     25  C   UNL     1      11.351   7.949  -7.847  1.00  0.00     0.006 C 
ATOM     26  C   UNL     1      11.679   7.032  -8.768  1.00  0.00     0.007 C 
ENDBRANCH  24  25
ENDBRANCH  23  24
ENDBRANCH  18  23
ENDBRANCH   1  17
BRANCH   8  27
ATOM     27  C   UNL     1       2.641   6.948   1.785  1.00  0.00    -0.018 A 
ATOM     28  C   UNL     1       2.045   7.680   2.822  1.00  0.00     0.012 A 
ATOM     29  C   UNL     1       2.422   5.565   1.732  1.00  0.00     0.012 A 
ATOM     30  C   UNL     1       1.243   7.050   3.781  1.00  0.00     0.047 A 
ATOM     31  C   UNL     1       1.621   4.938   2.690  1.00  0.00     0.047 A 
ATOM     32  C   UNL     1       1.027   5.674   3.717  1.00  0.00     0.119 A 
BRANCH  32  33
ATOM     33  O   UNL     1       0.268   4.935   4.583  1.00  0.00    -0.490 OA
BRANCH  33  34
ATOM     34  C   UNL     1      -0.961   4.413   4.086  1.00  0.00     0.257 C 
BRANCH  34  35
ATOM     35  C   UNL     1      -1.936   5.549   4.018  1.00  0.00     0.006 C 
ATOM     36  C   UNL     1      -2.681   5.982   5.045  1.00  0.00     0.007 C 
ENDBRANCH  34  35
ENDBRANCH  33  34
ENDBRANCH  32  33
ENDBRANCH   8  27
TORSDOF 8
ENDMDL
MODEL 10
REMARK VINA RESULT:    -9.425      1.544      4.422
REMARK INTER + INTRA:         -18.752
REMARK INTER:                 -17.878
REMARK INTRA:                  -0.873
REMARK UNBOUND:                -0.511
REMARK SMILES C=CCOc1ccc(-c2ccc3ccc4c(-c5ccc(OCC=C)cc5)ccc5ccc2c3c54)cc1
REMARK SMILES IDX 9 1 10 2 11 3 12 4 13 5 14 6 15 7 16 8 27 9 28 10 29 11
REMARK SMILES IDX 30 12 31 13 32 14 33 15 34 16 8 17 5 18 6 19 36 20 7 21
REMARK SMILES IDX 35 22 4 23 3 24 2 25 1 26 17 27 18 28 26 29 19 30 25 31
REMARK SMILES IDX 20 32 21 33 22 34 23 35 24 36
REMARK H PARENT
REMARK Flexibility Score: inf
ROOT
ATOM      1  C   UNL     1       3.621   7.739   0.731  1.00  0.00    -0.010 A 
ATOM      2  C   UNL     1       3.232   8.968   0.174  1.00  0.00     0.010 A 
ATOM      3  C   UNL     1       3.978   9.565  -0.838  1.00  0.00     0.009 A 
ATOM      4  C   UNL     1       5.135   8.949  -1.322  1.00  0.00    -0.017 A 
ATOM      5  C   UNL     1       5.882   9.551  -2.336  1.00  0.00     0.009 A 
ATOM      6  C   UNL     1       7.039   8.943  -2.825  1.00  0.00     0.010 A 
ATOM      7  C   UNL     1       7.496   7.708  -2.321  1.00  0.00    -0.009 A 
ATOM      8  C   UNL     1       8.671   7.065  -2.802  1.00  0.00    -0.010 A 
ATOM      9  C   UNL     1       9.062   5.838  -2.245  1.00  0.00     0.010 A 
ATOM     10  C   UNL     1       8.317   5.241  -1.231  1.00  0.00     0.009 A 
ATOM     11  C   UNL     1       7.159   5.857  -0.747  1.00  0.00    -0.017 A 
ATOM     12  C   UNL     1       6.413   5.257   0.269  1.00  0.00     0.009 A 
ATOM     13  C   UNL     1       5.257   5.864   0.758  1.00  0.00     0.010 A 
ATOM     14  C   UNL     1       4.798   7.097   0.251  1.00  0.00    -0.009 A 
ATOM     15  C   UNL     1       5.555   7.711  -0.783  1.00  0.00    -0.002 A 
ATOM     16  C   UNL     1       6.738   7.095  -1.287  1.00  0.00    -0.002 A 
ENDROOT
BRANCH   1  17
ATOM     17  C   UNL     1       2.785   7.169   1.798  1.00  0.00    -0.018 A 
ATOM     18  C   UNL     1       1.167   6.086   3.843  1.00  0.00     0.119 A 
ATOM     19  C   UNL     1       1.729   5.260   2.866  1.00  0.00     0.047 A 
ATOM     20  C   UNL     1       1.407   7.458   3.791  1.00  0.00     0.047 A 
ATOM     21  C   UNL     1       2.530   5.793   1.853  1.00  0.00     0.012 A 
ATOM     22  C   UNL     1       2.211   7.994   2.776  1.00  0.00     0.012 A 
BRANCH  18  23
ATOM     23  O   UNL     1       0.399   5.430   4.764  1.00  0.00    -0.490 OA
BRANCH  23  24
ATOM     24  C   UNL     1      -1.003   5.295   4.530  1.00  0.00     0.257 C 
BRANCH  24  25
ATOM     25  C   UNL     1      -1.438   3.888   4.822  1.00  0.00     0.006 C 
ATOM     26  C   UNL     1      -0.763   3.027   5.595  1.00  0.00     0.007 C 
ENDBRANCH  24  25
ENDBRANCH  23  24
ENDBRANCH  18  23
ENDBRANCH   1  17
BRANCH   8  27
ATOM     27  C   UNL     1       9.504   7.635  -3.873  1.00  0.00    -0.018 A 
ATOM     28  C   UNL     1      10.821   7.194  -4.070  1.00  0.00     0.012 A 
ATOM     29  C   UNL     1       9.001   8.635  -4.717  1.00  0.00     0.012 A 
ATOM     30  C   UNL     1      11.617   7.732  -5.089  1.00  0.00     0.047 A 
ATOM     31  C   UNL     1       9.797   9.170  -5.733  1.00  0.00     0.047 A 
ATOM     32  C   UNL     1      11.105   8.722  -5.926  1.00  0.00     0.119 A 
BRANCH  32  33
ATOM     33  O   UNL     1      11.769   9.330  -6.956  1.00  0.00    -0.490 OA
BRANCH  33  34
ATOM     34  C   UNL     1      11.393   8.958  -8.280  1.00  0.00     0.257 C 
BRANCH  34  35
ATOM     35  C   UNL     1      11.160  10.223  -9.051  1.00  0.00     0.006 C 
ATOM     36  C   UNL     1      10.008  10.908  -9.069  1.00  0.00     0.007 C 
ENDBRANCH  34  35
ENDBRANCH  33  34
ENDBRANCH  32  33
ENDBRANCH   8  27
TORSDOF 8
REMARK SMILES C=CCOc1ccc(-c2ccc3ccc4c(-c5ccc(OCC=C)cc5)ccc5ccc2c3c54)cc1
REMARK SMILES IDX 9 1 10 2 11 3 12 4 13 5 14 6 15 7 16 8 27 9 28 10 29 11
REMARK SMILES IDX 30 12 31 13 32 14 33 15 34 16 8 17 5 18 6 19 36 20 7 21
REMARK SMILES IDX 35 22 4 23 3 24 2 25 1 26 17 27 18 28 26 29 19 30 25 31
REMARK SMILES IDX 20 32 21 33 22 34 23 35 24 36
REMARK H PARENT
REMARK Flexibility Score: inf
ROOT
ATOM      1  C   UNL     1       6.936   5.788  -5.795  1.00  0.00    -0.010 A 
ATOM      2  C   UNL     1       6.654   7.018  -6.411  1.00  0.00     0.010 A 
ATOM      3  C   UNL     1       5.560   7.783  -6.017  1.00  0.00     0.009 A 
ATOM      4  C   UNL     1       4.718   7.340  -4.994  1.00  0.00    -0.017 A 
ATOM      5  C   UNL     1       3.620   8.108  -4.602  1.00  0.00     0.009 A 
ATOM      6  C   UNL     1       2.775   7.672  -3.582  1.00  0.00     0.010 A 
ATOM      7  C   UNL     1       2.991   6.451  -2.911  1.00  0.00    -0.009 A 
ATOM      8  C   UNL     1       2.145   5.984  -1.866  1.00  0.00    -0.010 A 
ATOM      9  C   UNL     1       2.426   4.754  -1.251  1.00  0.00     0.010 A 
ATOM     10  C   UNL     1       3.519   3.988  -1.646  1.00  0.00     0.009 A 
ATOM     11  C   UNL     1       4.362   4.431  -2.670  1.00  0.00    -0.017 A 
ATOM     12  C   UNL     1       5.458   3.662  -3.064  1.00  0.00     0.009 A 
ATOM     13  C   UNL     1       6.303   4.097  -4.084  1.00  0.00     0.010 A 
ATOM     14  C   UNL     1       6.090   5.320  -4.751  1.00  0.00    -0.009 A 
ATOM     15  C   UNL     1       4.974   6.105  -4.352  1.00  0.00    -0.002 A 
ATOM     16  C   UNL     1       4.106   5.666  -3.311  1.00  0.00    -0.002 A 
ENDROOT
BRANCH   1  17
ATOM     17  C   UNL     1       8.108   5.034  -6.265  1.00  0.00    -0.018 A 
ATOM     18  C   UNL     1      10.363   3.599  -7.178  1.00  0.00     0.119 A 
ATOM     19  C   UNL     1      10.097   3.715  -5.811  1.00  0.00     0.047 A 
ATOM     20  C   UNL     1       9.504   4.211  -8.090  1.00  0.00     0.047 A 
ATOM     21  C   UNL     1       8.982   4.424  -5.356  1.00  0.00     0.012 A 
ATOM     22  C   UNL     1       8.386   4.922  -7.635  1.00  0.00     0.012 A 
BRANCH  18  23
ATOM     23  O   UNL     1      11.490   2.887  -7.476  1.00  0.00    -0.490 OA
BRANCH  23  24
ATOM     24  C   UNL     1      11.537   1.496  -7.161  1.00  0.00     0.257 C 
BRANCH  24  25
ATOM     25  C   UNL     1      10.651   0.727  -8.099  1.00  0.00     0.006 C 
ATOM     26  C   UNL     1       9.485   0.163  -7.753  1.00  0.00     0.007 C 
ENDBRANCH  24  25
ENDBRANCH  23  24
ENDBRANCH  18  23
ENDBRANCH   1  17
BRANCH   8  27
ATOM     27  C   UNL     1       0.976   6.742  -1.394  1.00  0.00    -0.018 A 
ATOM     28  C   UNL     1       0.068   6.172  -0.489  1.00  0.00     0.012 A 
ATOM     29  C   UNL     1       0.741   8.049  -1.842  1.00  0.00     0.012 A 
ATOM     30  C   UNL     1      -1.045   6.891  -0.036  1.00  0.00     0.047 A 
ATOM     31  C   UNL     1      -0.370   8.764  -1.388  1.00  0.00     0.047 A 
ATOM     32  C   UNL     1      -1.267   8.192  -0.483  1.00  0.00     0.119 A 
BRANCH  32  33
ATOM     33  O   UNL     1      -2.307   9.004  -0.122  1.00  0.00    -0.490 OA
BRANCH  33  34
ATOM     34  C   UNL     1      -2.064  10.408  -0.118  1.00  0.00     0.257 C 
BRANCH  34  35
ATOM     35  C   UNL     1      -1.706  10.797   1.284  1.00  0.00     0.006 C 
ATOM     36  C   UNL     1      -0.456  10.983   1.732  1.00  0.00     0.007 C 
ENDBRANCH  34  35
ENDBRANCH  33  34
ENDBRANCH  32  33
ENDBRANCH   8  27
TORSDOF 8
ENDMDL
MODEL 11
REMARK VINA RESULT:    -9.246      1.921     11.805
REMARK INTER + INTRA:         -18.406
REMARK INTER:                 -16.736
REMARK INTRA:                  -1.670
REMARK UNBOUND:                -0.511
REMARK SMILES C=CCOc1ccc(-c2ccc3ccc4c(-c5ccc(OCC=C)cc5)ccc5ccc2c3c54)cc1
REMARK SMILES IDX 9 1 10 2 11 3 12 4 13 5 14 6 15 7 16 8 27 9 28 10 29 11
REMARK SMILES IDX 30 12 31 13 32 14 33 15 34 16 8 17 5 18 6 19 36 20 7 21
REMARK SMILES IDX 35 22 4 23 3 24 2 25 1 26 17 27 18 28 26 29 19 30 25 31
REMARK SMILES IDX 20 32 21 33 22 34 23 35 24 36
REMARK H PARENT
REMARK Flexibility Score: inf
ROOT
ATOM      1  C   UNL     1       7.948   7.419  -5.418  1.00  0.00    -0.010 A 
ATOM      2  C   UNL     1       8.262   8.730  -5.026  1.00  0.00     0.010 A 
ATOM      3  C   UNL     1       7.383   9.475  -4.245  1.00  0.00     0.009 A 
ATOM      4  C   UNL     1       6.165   8.928  -3.833  1.00  0.00    -0.017 A 
ATOM      5  C   UNL     1       5.284   9.677  -3.051  1.00  0.00     0.009 A 
ATOM      6  C   UNL     1       4.066   9.139  -2.636  1.00  0.00     0.010 A 
ATOM      7  C   UNL     1       3.678   7.829  -2.984  1.00  0.00    -0.009 A 
ATOM      8  C   UNL     1       2.443   7.254  -2.573  1.00  0.00    -0.010 A 
ATOM      9  C   UNL     1       2.128   5.944  -2.966  1.00  0.00     0.010 A 
ATOM     10  C   UNL     1       3.006   5.200  -3.749  1.00  0.00     0.009 A 
ATOM     11  C   UNL     1       4.225   5.747  -4.161  1.00  0.00    -0.017 A 
ATOM     12  C   UNL     1       5.104   4.999  -4.945  1.00  0.00     0.009 A 
ATOM     13  C   UNL     1       6.322   5.537  -5.361  1.00  0.00     0.010 A 
ATOM     14  C   UNL     1       6.712   6.845  -5.008  1.00  0.00    -0.009 A 
ATOM     15  C   UNL     1       5.818   7.609  -4.210  1.00  0.00    -0.002 A 
ATOM     16  C   UNL     1       4.572   7.065  -3.783  1.00  0.00    -0.002 A 
ENDROOT
BRANCH   1  17
ATOM     17  C   UNL     1       8.925   6.693  -6.245  1.00  0.00    -0.018 A 
ATOM     18  C   UNL     1      10.805   5.315  -7.839  1.00  0.00     0.119 A 
ATOM     19  C   UNL     1      10.756   5.113  -6.458  1.00  0.00     0.047 A 
ATOM     20  C   UNL     1       9.917   6.218  -8.423  1.00  0.00     0.047 A 
ATOM     21  C   UNL     1       9.827   5.792  -5.666  1.00  0.00     0.012 A 
ATOM     22  C   UNL     1       8.984   6.900  -7.631  1.00  0.00     0.012 A 
BRANCH  18  23
ATOM     23  O   UNL     1      11.769   4.593  -8.483  1.00  0.00    -0.490 OA
BRANCH  23  24
ATOM     24  C   UNL     1      11.725   3.167  -8.423  1.00  0.00     0.257 C 
BRANCH  24  25
ATOM     25  C   UNL     1      10.482   2.663  -9.098  1.00  0.00     0.006 C 
ATOM     26  C   UNL     1       9.573   1.864  -8.522  1.00  0.00     0.007 C 
ENDBRANCH  24  25
ENDBRANCH  23  24
ENDBRANCH  18  23
ENDBRANCH   1  17
BRANCH   8  27
ATOM     27  C   UNL     1       1.469   7.981  -1.742  1.00  0.00    -0.018 A 
ATOM     28  C   UNL     1       1.799   9.215  -1.163  1.00  0.00     0.012 A 
ATOM     29  C   UNL     1       0.193   7.452  -1.506  1.00  0.00     0.012 A 
ATOM     30  C   UNL     1       0.875   9.910  -0.373  1.00  0.00     0.047 A 
ATOM     31  C   UNL     1      -0.728   8.148  -0.718  1.00  0.00     0.047 A 
ATOM     32  C   UNL     1      -0.394   9.379  -0.150  1.00  0.00     0.119 A 
BRANCH  32  33
ATOM     33  O   UNL     1      -1.389   9.950   0.595  1.00  0.00    -0.490 OA
BRANCH  33  34
ATOM     34  C   UNL     1      -1.284   9.840   2.012  1.00  0.00     0.257 C 
BRANCH  34  35
ATOM     35  C   UNL     1      -1.019  11.214   2.550  1.00  0.00     0.006 C 
ATOM     36  C   UNL     1       0.153  11.859   2.460  1.00  0.00     0.007 C 
ENDBRANCH  34  35
ENDBRANCH  33  34
ENDBRANCH  32  33
ENDBRANCH   8  27
TORSDOF 8
REMARK SMILES C=CCOc1ccc(-c2ccc3ccc4c(-c5ccc(OCC=C)cc5)ccc5ccc2c3c54)cc1
REMARK SMILES IDX 9 1 10 2 11 3 12 4 13 5 14 6 15 7 16 8 27 9 28 10 29 11
REMARK SMILES IDX 30 12 31 13 32 14 33 15 34 16 8 17 5 18 6 19 36 20 7 21
REMARK SMILES IDX 35 22 4 23 3 24 2 25 1 26 17 27 18 28 26 29 19 30 25 31
REMARK SMILES IDX 20 32 21 33 22 34 23 35 24 36
REMARK H PARENT
REMARK Flexibility Score: inf
ROOT
ATOM      1  C   UNL     1       1.717   5.845   1.377  1.00  0.00    -0.010 A 
ATOM      2  C   UNL     1       1.735   7.133   1.936  1.00  0.00     0.010 A 
ATOM      3  C   UNL     1       2.823   7.980   1.751  1.00  0.00     0.009 A 
ATOM      4  C   UNL     1       3.925   7.562   1.000  1.00  0.00    -0.017 A 
ATOM      5  C   UNL     1       5.017   8.413   0.816  1.00  0.00     0.009 A 
ATOM      6  C   UNL     1       6.120   8.004   0.068  1.00  0.00     0.010 A 
ATOM      7  C   UNL     1       6.179   6.727  -0.528  1.00  0.00    -0.009 A 
ATOM      8  C   UNL     1       7.291   6.285  -1.298  1.00  0.00    -0.010 A 
ATOM      9  C   UNL     1       7.275   4.997  -1.855  1.00  0.00     0.010 A 
ATOM     10  C   UNL     1       6.187   4.149  -1.668  1.00  0.00     0.009 A 
ATOM     11  C   UNL     1       5.084   4.566  -0.917  1.00  0.00    -0.017 A 
ATOM     12  C   UNL     1       3.994   3.715  -0.731  1.00  0.00     0.009 A 
ATOM     13  C   UNL     1       2.891   4.124   0.017  1.00  0.00     0.010 A 
ATOM     14  C   UNL     1       2.830   5.401   0.609  1.00  0.00    -0.009 A 
ATOM     15  C   UNL     1       3.939   6.270   0.423  1.00  0.00    -0.002 A 
ATOM     16  C   UNL     1       5.070   5.858  -0.341  1.00  0.00    -0.002 A 
ENDROOT
BRANCH   1  17
ATOM     17  C   UNL     1       0.533   5.005   1.618  1.00  0.00    -0.018 A 
ATOM     18  C   UNL     1      -1.734   3.382   2.067  1.00  0.00     0.119 A 
ATOM     19  C   UNL     1      -0.923   3.785   3.131  1.00  0.00     0.047 A 
ATOM     20  C   UNL     1      -1.403   3.783   0.774  1.00  0.00     0.047 A 
ATOM     21  C   UNL     1       0.198   4.589   2.912  1.00  0.00     0.012 A 
ATOM     22  C   UNL     1      -0.279   4.589   0.552  1.00  0.00     0.012 A 
BRANCH  18  23
ATOM     23  O   UNL     1      -2.788   2.592   2.427  1.00  0.00    -0.490 OA
BRANCH  23  24
ATOM     24  C   UNL     1      -2.563   1.488   3.304  1.00  0.00     0.257 C 
BRANCH  24  25
ATOM     25  C   UNL     1      -2.023   0.320   2.531  1.00  0.00     0.006 C 
ATOM     26  C   UNL     1      -0.955  -0.404   2.893  1.00  0.00     0.007 C 
ENDBRANCH  24  25
ENDBRANCH  23  24
ENDBRANCH  18  23
ENDBRANCH   1  17
BRANCH   8  27
ATOM     27  C   UNL     1       8.473   7.128  -1.541  1.00  0.00    -0.018 A 
ATOM     28  C   UNL     1       9.581   6.628  -2.240  1.00  0.00     0.012 A 
ATOM     29  C   UNL     1       8.519   8.449  -1.073  1.00  0.00     0.012 A 
ATOM     30  C   UNL     1      10.706   7.427  -2.475  1.00  0.00     0.047 A 
ATOM     31  C   UNL     1       9.642   9.245  -1.309  1.00  0.00     0.047 A 
ATOM     32  C   UNL     1      10.740   8.742  -2.010  1.00  0.00     0.119 A 
BRANCH  32  33
ATOM     33  O   UNL     1      11.769   9.628  -2.171  1.00  0.00    -0.490 OA
BRANCH  33  34
ATOM     34  C   UNL     1      11.467  11.011  -2.002  1.00  0.00     0.257 C 
BRANCH  34  35
ATOM     35  C   UNL     1      11.548  11.654  -3.354  1.00  0.00     0.006 C 
ATOM     36  C   UNL     1      10.628  11.526  -4.320  1.00  0.00     0.007 C 
ENDBRANCH  34  35
ENDBRANCH  33  34
ENDBRANCH  32  33
ENDBRANCH   8  27
TORSDOF 8
ENDMDL
MODEL 12
REMARK VINA RESULT:    -9.213      2.266     11.141
REMARK INTER + INTRA:         -18.341
REMARK INTER:                 -16.970
REMARK INTRA:                  -1.372
REMARK UNBOUND:                -0.511
REMARK SMILES C=CCOc1ccc(-c2ccc3ccc4c(-c5ccc(OCC=C)cc5)ccc5ccc2c3c54)cc1
REMARK SMILES IDX 9 1 10 2 11 3 12 4 13 5 14 6 15 7 16 8 27 9 28 10 29 11
REMARK SMILES IDX 30 12 31 13 32 14 33 15 34 16 8 17 5 18 6 19 36 20 7 21
REMARK SMILES IDX 35 22 4 23 3 24 2 25 1 26 17 27 18 28 26 29 19 30 25 31
REMARK SMILES IDX 20 32 21 33 22 34 23 35 24 36
REMARK H PARENT
REMARK Flexibility Score: inf
ROOT
ATOM      1  C   UNL     1       7.974   6.506  -1.445  1.00  0.00    -0.010 A 
ATOM      2  C   UNL     1       8.233   7.738  -2.068  1.00  0.00     0.010 A 
ATOM      3  C   UNL     1       7.324   8.788  -1.983  1.00  0.00     0.009 A 
ATOM      4  C   UNL     1       6.131   8.637  -1.272  1.00  0.00    -0.017 A 
ATOM      5  C   UNL     1       5.221   9.692  -1.190  1.00  0.00     0.009 A 
ATOM      6  C   UNL     1       4.028   9.549  -0.482  1.00  0.00     0.010 A 
ATOM      7  C   UNL     1       3.695   8.346   0.173  1.00  0.00    -0.009 A 
ATOM      8  C   UNL     1       2.485   8.173   0.904  1.00  0.00    -0.010 A 
ATOM      9  C   UNL     1       2.225   6.942   1.525  1.00  0.00     0.010 A 
ATOM     10  C   UNL     1       3.133   5.890   1.439  1.00  0.00     0.009 A 
ATOM     11  C   UNL     1       4.327   6.041   0.727  1.00  0.00    -0.017 A 
ATOM     12  C   UNL     1       5.236   4.985   0.643  1.00  0.00     0.009 A 
ATOM     13  C   UNL     1       6.429   5.128  -0.065  1.00  0.00     0.010 A 
ATOM     14  C   UNL     1       6.764   6.332  -0.716  1.00  0.00    -0.009 A 
ATOM     15  C   UNL     1       5.840   7.409  -0.632  1.00  0.00    -0.002 A 
ATOM     16  C   UNL     1       4.618   7.269   0.089  1.00  0.00    -0.002 A 
ENDROOT
BRANCH   1  17
ATOM     17  C   UNL     1       8.980   5.440  -1.579  1.00  0.00    -0.018 A 
ATOM     18  C   UNL     1      10.921   3.404  -1.829  1.00  0.00     0.119 A 
ATOM     19  C   UNL     1       9.687   3.143  -1.227  1.00  0.00     0.047 A 
ATOM     20  C   UNL     1      11.187   4.690  -2.298  1.00  0.00     0.047 A 
ATOM     21  C   UNL     1       8.725   4.148  -1.102  1.00  0.00     0.012 A 
ATOM     22  C   UNL     1      10.223   5.698  -2.174  1.00  0.00     0.012 A 
BRANCH  18  23
ATOM     23  O   UNL     1      11.767   2.332  -1.874  1.00  0.00    -0.490 OA
BRANCH  23  24
ATOM     24  C   UNL     1      11.263   1.067  -2.303  1.00  0.00     0.257 C 
BRANCH  24  25
ATOM     25  C   UNL     1      11.547   0.871  -3.764  1.00  0.00     0.006 C 
ATOM     26  C   UNL     1      10.642   1.019  -4.742  1.00  0.00     0.007 C 
ENDBRANCH  24  25
ENDBRANCH  23  24
ENDBRANCH  18  23
ENDBRANCH   1  17
BRANCH   8  27
ATOM     27  C   UNL     1       1.483   9.242   1.040  1.00  0.00    -0.018 A 
ATOM     28  C   UNL     1       0.559   9.496   0.016  1.00  0.00     0.012 A 
ATOM     29  C   UNL     1       1.432  10.034   2.196  1.00  0.00     0.012 A 
ATOM     30  C   UNL     1      -0.397  10.510   0.142  1.00  0.00     0.047 A 
ATOM     31  C   UNL     1       0.477  11.046   2.319  1.00  0.00     0.047 A 
ATOM     32  C   UNL     1      -0.443  11.289   1.297  1.00  0.00     0.119 A 
BRANCH  32  33
ATOM     33  O   UNL     1      -1.322  12.305   1.551  1.00  0.00    -0.490 OA
BRANCH  33  34
ATOM     34  C   UNL     1      -2.213  12.671   0.501  1.00  0.00     0.257 C 
BRANCH  34  35
ATOM     35  C   UNL     1      -1.768  14.005  -0.020  1.00  0.00     0.006 C 
ATOM     36  C   UNL     1      -0.985  14.185  -1.093  1.00  0.00     0.007 C 
ENDBRANCH  34  35
ENDBRANCH  33  34
ENDBRANCH  32  33
ENDBRANCH   8  27
TORSDOF 8
REMARK SMILES C=CCOc1ccc(-c2ccc3ccc4c(-c5ccc(OCC=C)cc5)ccc5ccc2c3c54)cc1
REMARK SMILES IDX 9 1 10 2 11 3 12 4 13 5 14 6 15 7 16 8 27 9 28 10 29 11
REMARK SMILES IDX 30 12 31 13 32 14 33 15 34 16 8 17 5 18 6 19 36 20 7 21
REMARK SMILES IDX 35 22 4 23 3 24 2 25 1 26 17 27 18 28 26 29 19 30 25 31
REMARK SMILES IDX 20 32 21 33 22 34 23 35 24 36
REMARK H PARENT
REMARK Flexibility Score: inf
ROOT
ATOM      1  C   UNL     1       2.162   6.484  -2.453  1.00  0.00    -0.010 A 
ATOM      2  C   UNL     1       2.031   7.811  -2.894  1.00  0.00     0.010 A 
ATOM      3  C   UNL     1       3.014   8.405  -3.680  1.00  0.00     0.009 A 
ATOM      4  C   UNL     1       4.156   7.688  -4.048  1.00  0.00    -0.017 A 
ATOM      5  C   UNL     1       5.141   8.287  -4.835  1.00  0.00     0.009 A 
ATOM      6  C   UNL     1       6.283   7.578  -5.207  1.00  0.00     0.010 A 
ATOM      7  C   UNL     1       6.488   6.241  -4.808  1.00  0.00    -0.009 A 
ATOM      8  C   UNL     1       7.643   5.494  -5.175  1.00  0.00    -0.010 A 
ATOM      9  C   UNL     1       7.774   4.169  -4.734  1.00  0.00     0.010 A 
ATOM     10  C   UNL     1       6.792   3.575  -3.946  1.00  0.00     0.009 A 
ATOM     11  C   UNL     1       5.650   4.292  -3.577  1.00  0.00    -0.017 A 
ATOM     12  C   UNL     1       4.666   3.694  -2.788  1.00  0.00     0.009 A 
ATOM     13  C   UNL     1       3.524   4.403  -2.415  1.00  0.00     0.010 A 
ATOM     14  C   UNL     1       3.317   5.738  -2.818  1.00  0.00    -0.009 A 
ATOM     15  C   UNL     1       4.318   6.349  -3.621  1.00  0.00    -0.002 A 
ATOM     16  C   UNL     1       5.488   5.631  -4.005  1.00  0.00    -0.002 A 
ENDROOT
BRANCH   1  17
ATOM     17  C   UNL     1       1.084   5.924  -1.624  1.00  0.00    -0.018 A 
ATOM     18  C   UNL     1      -0.975   4.846  -0.019  1.00  0.00     0.119 A 
ATOM     19  C   UNL     1      -1.158   6.054  -0.698  1.00  0.00     0.047 A 
ATOM     20  C   UNL     1       0.244   4.181  -0.136  1.00  0.00     0.047 A 
ATOM     21  C   UNL     1      -0.142   6.589  -1.493  1.00  0.00     0.012 A 
ATOM     22  C   UNL     1       1.264   4.716  -0.934  1.00  0.00     0.012 A 
BRANCH  18  23
ATOM     23  O   UNL     1      -2.048   4.449   0.727  1.00  0.00    -0.490 OA
BRANCH  23  24
ATOM     24  C   UNL     1      -2.350   5.145   1.936  1.00  0.00     0.257 C 
BRANCH  24  25
ATOM     25  C   UNL     1      -1.079   5.539   2.632  1.00  0.00     0.006 C 
ATOM     26  C   UNL     1      -1.007   5.979   3.896  1.00  0.00     0.007 C 
ENDBRANCH  24  25
ENDBRANCH  23  24
ENDBRANCH  18  23
ENDBRANCH   1  17
BRANCH   8  27
ATOM     27  C   UNL     1       8.718   6.056  -6.008  1.00  0.00    -0.018 A 
ATOM     28  C   UNL     1       9.669   6.930  -5.461  1.00  0.00     0.012 A 
ATOM     29  C   UNL     1       8.812   5.734  -7.369  1.00  0.00     0.012 A 
ATOM     30  C   UNL     1      10.695   7.465  -6.249  1.00  0.00     0.047 A 
ATOM     31  C   UNL     1       9.837   6.270  -8.154  1.00  0.00     0.047 A 
ATOM     32  C   UNL     1      10.783   7.134  -7.600  1.00  0.00     0.119 A 
BRANCH  32  33
ATOM     33  O   UNL     1      11.730   7.581  -8.480  1.00  0.00    -0.490 OA
BRANCH  33  34
ATOM     34  C   UNL     1      11.769   8.982  -8.737  1.00  0.00     0.257 C 
BRANCH  34  35
ATOM     35  C   UNL     1      10.360   9.432  -8.981  1.00  0.00     0.006 C 
ATOM     36  C   UNL     1       9.898  10.668  -8.747  1.00  0.00     0.007 C 
ENDBRANCH  34  35
ENDBRANCH  33  34
ENDBRANCH  32  33
ENDBRANCH   8  27
TORSDOF 8
ENDMDL
MODEL 13
REMARK VINA RESULT:    -9.173      1.317      3.540
REMARK INTER + INTRA:         -18.265
REMARK INTER:                 -17.732
REMARK INTRA:                  -0.533
REMARK UNBOUND:                -0.511
REMARK SMILES C=CCOc1ccc(-c2ccc3ccc4c(-c5ccc(OCC=C)cc5)ccc5ccc2c3c54)cc1
REMARK SMILES IDX 9 1 10 2 11 3 12 4 13 5 14 6 15 7 16 8 27 9 28 10 29 11
REMARK SMILES IDX 30 12 31 13 32 14 33 15 34 16 8 17 5 18 6 19 36 20 7 21
REMARK SMILES IDX 35 22 4 23 3 24 2 25 1 26 17 27 18 28 26 29 19 30 25 31
REMARK SMILES IDX 20 32 21 33 22 34 23 35 24 36
REMARK H PARENT
REMARK Flexibility Score: inf
ROOT
ATOM      1  C   UNL     1       1.815   5.473  -1.269  1.00  0.00    -0.010 A 
ATOM      2  C   UNL     1       1.258   5.909  -2.482  1.00  0.00     0.010 A 
ATOM      3  C   UNL     1       2.024   5.969  -3.642  1.00  0.00     0.009 A 
ATOM      4  C   UNL     1       3.370   5.592  -3.622  1.00  0.00    -0.017 A 
ATOM      5  C   UNL     1       4.136   5.654  -4.787  1.00  0.00     0.009 A 
ATOM      6  C   UNL     1       5.480   5.280  -4.776  1.00  0.00     0.010 A 
ATOM      7  C   UNL     1       6.113   4.828  -3.600  1.00  0.00    -0.009 A 
ATOM      8  C   UNL     1       7.482   4.438  -3.561  1.00  0.00    -0.010 A 
ATOM      9  C   UNL     1       8.039   4.004  -2.348  1.00  0.00     0.010 A 
ATOM     10  C   UNL     1       7.274   3.946  -1.187  1.00  0.00     0.009 A 
ATOM     11  C   UNL     1       5.928   4.323  -1.207  1.00  0.00    -0.017 A 
ATOM     12  C   UNL     1       5.162   4.264  -0.041  1.00  0.00     0.009 A 
ATOM     13  C   UNL     1       3.818   4.638  -0.052  1.00  0.00     0.010 A 
ATOM     14  C   UNL     1       3.184   5.085  -1.229  1.00  0.00    -0.009 A 
ATOM     15  C   UNL     1       3.962   5.147  -2.417  1.00  0.00    -0.002 A 
ATOM     16  C   UNL     1       5.336   4.767  -2.412  1.00  0.00    -0.002 A 
ENDROOT
BRANCH   1  17
ATOM     17  C   UNL     1       0.946   5.438  -0.083  1.00  0.00    -0.018 A 
ATOM     18  C   UNL     1      -0.711   5.372   2.204  1.00  0.00     0.119 A 
ATOM     19  C   UNL     1      -0.880   6.358   1.229  1.00  0.00     0.047 A 
ATOM     20  C   UNL     1       0.297   4.422   2.039  1.00  0.00     0.047 A 
ATOM     21  C   UNL     1      -0.063   6.394   0.096  1.00  0.00     0.012 A 
ATOM     22  C   UNL     1       1.117   4.456   0.903  1.00  0.00     0.012 A 
BRANCH  18  23
ATOM     23  O   UNL     1      -1.573   5.466   3.259  1.00  0.00    -0.490 OA
BRANCH  23  24
ATOM     24  C   UNL     1      -2.479   4.393   3.514  1.00  0.00     0.257 C 
BRANCH  24  25
ATOM     25  C   UNL     1      -2.466   4.046   4.975  1.00  0.00     0.006 C 
ATOM     26  C   UNL     1      -1.782   3.025   5.509  1.00  0.00     0.007 C 
ENDBRANCH  24  25
ENDBRANCH  23  24
ENDBRANCH  18  23
ENDBRANCH   1  17
BRANCH   8  27
ATOM     27  C   UNL     1       8.349   4.469  -4.750  1.00  0.00    -0.018 A 
ATOM     28  C   UNL     1       9.745   4.428  -4.621  1.00  0.00     0.012 A 
ATOM     29  C   UNL     1       7.798   4.547  -6.036  1.00  0.00     0.012 A 
ATOM     30  C   UNL     1      10.574   4.455  -5.749  1.00  0.00     0.047 A 
ATOM     31  C   UNL     1       8.627   4.574  -7.160  1.00  0.00     0.047 A 
ATOM     32  C   UNL     1      10.016   4.527  -7.025  1.00  0.00     0.119 A 
BRANCH  32  33
ATOM     33  O   UNL     1      10.705   4.558  -8.206  1.00  0.00    -0.490 OA
BRANCH  33  34
ATOM     34  C   UNL     1      11.728   3.583  -8.388  1.00  0.00     0.257 C 
BRANCH  34  35
ATOM     35  C   UNL     1      11.114   2.419  -9.106  1.00  0.00     0.006 C 
ATOM     36  C   UNL     1      10.438   1.424  -8.515  1.00  0.00     0.007 C 
ENDBRANCH  34  35
ENDBRANCH  33  34
ENDBRANCH  32  33
ENDBRANCH   8  27
TORSDOF 8
REMARK SMILES C=CCOc1ccc(-c2ccc3ccc4c(-c5ccc(OCC=C)cc5)ccc5ccc2c3c54)cc1
REMARK SMILES IDX 9 1 10 2 11 3 12 4 13 5 14 6 15 7 16 8 27 9 28 10 29 11
REMARK SMILES IDX 30 12 31 13 32 14 33 15 34 16 8 17 5 18 6 19 36 20 7 21
REMARK SMILES IDX 35 22 4 23 3 24 2 25 1 26 17 27 18 28 26 29 19 30 25 31
REMARK SMILES IDX 20 32 21 33 22 34 23 35 24 36
REMARK H PARENT
REMARK Flexibility Score: inf
ROOT
ATOM      1  C   UNL     1       8.609   7.921  -3.574  1.00  0.00    -0.010 A 
ATOM      2  C   UNL     1       9.396   7.503  -2.488  1.00  0.00     0.010 A 
ATOM      3  C   UNL     1       8.849   7.373  -1.215  1.00  0.00     0.009 A 
ATOM      4  C   UNL     1       7.499   7.658  -0.992  1.00  0.00    -0.017 A 
ATOM      5  C   UNL     1       6.953   7.529   0.286  1.00  0.00     0.009 A 
ATOM      6  C   UNL     1       5.607   7.811   0.517  1.00  0.00     0.010 A 
ATOM      7  C   UNL     1       4.750   8.233  -0.520  1.00  0.00    -0.009 A 
ATOM      8  C   UNL     1       3.372   8.525  -0.312  1.00  0.00    -0.010 A 
ATOM      9  C   UNL     1       2.586   8.944  -1.397  1.00  0.00     0.010 A 
ATOM     10  C   UNL     1       3.134   9.076  -2.670  1.00  0.00     0.009 A 
ATOM     11  C   UNL     1       4.484   8.791  -2.894  1.00  0.00    -0.017 A 
ATOM     12  C   UNL     1       5.031   8.923  -4.171  1.00  0.00     0.009 A 
ATOM     13  C   UNL     1       6.377   8.642  -4.402  1.00  0.00     0.010 A 
ATOM     14  C   UNL     1       7.232   8.215  -3.367  1.00  0.00    -0.009 A 
ATOM     15  C   UNL     1       6.679   8.081  -2.065  1.00  0.00    -0.002 A 
ATOM     16  C   UNL     1       5.304   8.368  -1.821  1.00  0.00    -0.002 A 
ENDROOT
BRANCH   1  17
ATOM     17  C   UNL     1       9.256   8.036  -4.890  1.00  0.00    -0.018 A 
ATOM     18  C   UNL     1      10.508   8.246  -7.413  1.00  0.00     0.119 A 
ATOM     19  C   UNL     1       9.115   8.200  -7.310  1.00  0.00     0.047 A 
ATOM     20  C   UNL     1      11.276   8.176  -6.252  1.00  0.00     0.047 A 
ATOM     21  C   UNL     1       8.493   8.098  -6.063  1.00  0.00     0.012 A 
ATOM     22  C   UNL     1      10.654   8.073  -5.001  1.00  0.00     0.012 A 
BRANCH  18  23
ATOM     23  O   UNL     1      10.977   8.336  -8.693  1.00  0.00    -0.490 OA
BRANCH  23  24
ATOM     24  C   UNL     1      11.769   9.464  -9.065  1.00  0.00     0.257 C 
BRANCH  24  25
ATOM     25  C   UNL     1      11.276  10.693  -8.355  1.00  0.00     0.006 C 
ATOM     26  C   UNL     1      10.509  11.639  -8.915  1.00  0.00     0.007 C 
ENDBRANCH  24  25
ENDBRANCH  23  24
ENDBRANCH  18  23
ENDBRANCH   1  17
BRANCH   8  27
ATOM     27  C   UNL     1       2.726   8.404   1.004  1.00  0.00    -0.018 A 
ATOM     28  C   UNL     1       1.854   9.399   1.470  1.00  0.00     0.012 A 
ATOM     29  C   UNL     1       2.973   7.295   1.825  1.00  0.00     0.012 A 
ATOM     30  C   UNL     1       1.235   9.287   2.721  1.00  0.00     0.047 A 
ATOM     31  C   UNL     1       2.355   7.186   3.073  1.00  0.00     0.047 A 
ATOM     32  C   UNL     1       1.483   8.177   3.527  1.00  0.00     0.119 A 
BRANCH  32  33
ATOM     33  O   UNL     1       0.947   7.942   4.763  1.00  0.00    -0.490 OA
BRANCH  33  34
ATOM     34  C   UNL     1       0.519   9.076   5.512  1.00  0.00     0.257 C 
BRANCH  34  35
ATOM     35  C   UNL     1      -0.961   8.944   5.717  1.00  0.00     0.006 C 
ATOM     36  C   UNL     1      -1.891   9.239   4.798  1.00  0.00     0.007 C 
ENDBRANCH  34  35
ENDBRANCH  33  34
ENDBRANCH  32  33
ENDBRANCH   8  27
TORSDOF 8
ENDMDL
MODEL 14
REMARK VINA RESULT:    -9.020      3.081      9.859
REMARK INTER + INTRA:         -17.968
REMARK INTER:                 -17.625
REMARK INTRA:                  -0.344
REMARK UNBOUND:                -0.511
REMARK SMILES C=CCOc1ccc(-c2ccc3ccc4c(-c5ccc(OCC=C)cc5)ccc5ccc2c3c54)cc1
REMARK SMILES IDX 9 1 10 2 11 3 12 4 13 5 14 6 15 7 16 8 27 9 28 10 29 11
REMARK SMILES IDX 30 12 31 13 32 14 33 15 34 16 8 17 5 18 6 19 36 20 7 21
REMARK SMILES IDX 35 22 4 23 3 24 2 25 1 26 17 27 18 28 26 29 19 30 25 31
REMARK SMILES IDX 20 32 21 33 22 34 23 35 24 36
REMARK H PARENT
REMARK Flexibility Score: inf
ROOT
ATOM      1  C   UNL     1       9.791   4.640  -1.270  1.00  0.00    -0.010 A 
ATOM      2  C   UNL     1       8.821   5.312  -0.508  1.00  0.00     0.010 A 
ATOM      3  C   UNL     1       8.352   6.565  -0.889  1.00  0.00     0.009 A 
ATOM      4  C   UNL     1       8.839   7.183  -2.044  1.00  0.00    -0.017 A 
ATOM      5  C   UNL     1       8.368   8.441  -2.422  1.00  0.00     0.009 A 
ATOM      6  C   UNL     1       8.848   9.064  -3.574  1.00  0.00     0.010 A 
ATOM      7  C   UNL     1       9.820   8.456  -4.395  1.00  0.00    -0.009 A 
ATOM      8  C   UNL     1      10.327   9.068  -5.575  1.00  0.00    -0.010 A 
ATOM      9  C   UNL     1      11.297   8.399  -6.337  1.00  0.00     0.010 A 
ATOM     10  C   UNL     1      11.769   7.146  -5.955  1.00  0.00     0.009 A 
ATOM     11  C   UNL     1      11.282   6.527  -4.799  1.00  0.00    -0.017 A 
ATOM     12  C   UNL     1      11.755   5.271  -4.419  1.00  0.00     0.009 A 
ATOM     13  C   UNL     1      11.274   4.647  -3.267  1.00  0.00     0.010 A 
ATOM     14  C   UNL     1      10.299   5.253  -2.450  1.00  0.00    -0.009 A 
ATOM     15  C   UNL     1       9.816   6.533  -2.834  1.00  0.00    -0.002 A 
ATOM     16  C   UNL     1      10.304   7.176  -4.010  1.00  0.00    -0.002 A 
ENDROOT
BRANCH   1  17
ATOM     17  C   UNL     1      10.241   3.319  -0.805  1.00  0.00    -0.018 A 
ATOM     18  C   UNL     1      11.101   0.787   0.103  1.00  0.00     0.119 A 
ATOM     19  C   UNL     1      10.189   0.895  -0.950  1.00  0.00     0.047 A 
ATOM     20  C   UNL     1      11.576   1.949   0.710  1.00  0.00     0.047 A 
ATOM     21  C   UNL     1       9.762   2.146  -1.402  1.00  0.00     0.012 A 
ATOM     22  C   UNL     1      11.149   3.204   0.258  1.00  0.00     0.012 A 
BRANCH  18  23
ATOM     23  O   UNL     1      11.420  -0.496   0.445  1.00  0.00    -0.490 OA
BRANCH  23  24
ATOM     24  C   UNL     1      11.769  -0.788   1.798  1.00  0.00     0.257 C 
BRANCH  24  25
ATOM     25  C   UNL     1      10.707  -0.270   2.725  1.00  0.00     0.006 C 
ATOM     26  C   UNL     1      10.814  -0.233   4.060  1.00  0.00     0.007 C 
ENDBRANCH  24  25
ENDBRANCH  23  24
ENDBRANCH  18  23
ENDBRANCH   1  17
BRANCH   8  27
ATOM     27  C   UNL     1       9.872  10.388  -6.041  1.00  0.00    -0.018 A 
ATOM     28  C   UNL     1       9.532  11.395  -5.125  1.00  0.00     0.012 A 
ATOM     29  C   UNL     1       9.763  10.667  -7.410  1.00  0.00     0.012 A 
ATOM     30  C   UNL     1       9.101  12.653  -5.563  1.00  0.00     0.047 A 
ATOM     31  C   UNL     1       9.332  11.923  -7.845  1.00  0.00     0.047 A 
ATOM     32  C   UNL     1       9.001  12.921  -6.928  1.00  0.00     0.119 A 
BRANCH  32  33
ATOM     33  O   UNL     1       8.598  14.101  -7.490  1.00  0.00    -0.490 OA
BRANCH  33  34
ATOM     34  C   UNL     1       7.930  14.026  -8.747  1.00  0.00     0.257 C 
BRANCH  34  35
ATOM     35  C   UNL     1       6.645  13.286  -8.528  1.00  0.00     0.006 C 
ATOM     36  C   UNL     1       6.359  12.080  -9.039  1.00  0.00     0.007 C 
ENDBRANCH  34  35
ENDBRANCH  33  34
ENDBRANCH  32  33
ENDBRANCH   8  27
TORSDOF 8
REMARK SMILES C=CCOc1ccc(-c2ccc3ccc4c(-c5ccc(OCC=C)cc5)ccc5ccc2c3c54)cc1
REMARK SMILES IDX 9 1 10 2 11 3 12 4 13 5 14 6 15 7 16 8 27 9 28 10 29 11
REMARK SMILES IDX 30 12 31 13 32 14 33 15 34 16 8 17 5 18 6 19 36 20 7 21
REMARK SMILES IDX 35 22 4 23 3 24 2 25 1 26 17 27 18 28 26 29 19 30 25 31
REMARK SMILES IDX 20 32 21 33 22 34 23 35 24 36
REMARK H PARENT
REMARK Flexibility Score: inf
ROOT
ATOM      1  C   UNL     1       3.244   6.402  -0.492  1.00  0.00    -0.010 A 
ATOM      2  C   UNL     1       3.510   5.197   0.179  1.00  0.00     0.010 A 
ATOM      3  C   UNL     1       4.440   4.289  -0.318  1.00  0.00     0.009 A 
ATOM      4  C   UNL     1       5.131   4.561  -1.502  1.00  0.00    -0.017 A 
ATOM      5  C   UNL     1       6.061   3.647  -2.000  1.00  0.00     0.009 A 
ATOM      6  C   UNL     1       6.755   3.910  -3.181  1.00  0.00     0.010 A 
ATOM      7  C   UNL     1       6.548   5.097  -3.913  1.00  0.00    -0.009 A 
ATOM      8  C   UNL     1       7.244   5.392  -5.120  1.00  0.00    -0.010 A 
ATOM      9  C   UNL     1       6.977   6.594  -5.792  1.00  0.00     0.010 A 
ATOM     10  C   UNL     1       6.045   7.502  -5.296  1.00  0.00     0.009 A 
ATOM     11  C   UNL     1       5.354   7.231  -4.112  1.00  0.00    -0.017 A 
ATOM     12  C   UNL     1       4.421   8.143  -3.615  1.00  0.00     0.009 A 
ATOM     13  C   UNL     1       3.727   7.880  -2.434  1.00  0.00     0.010 A 
ATOM     14  C   UNL     1       3.938   6.696  -1.700  1.00  0.00    -0.009 A 
ATOM     15  C   UNL     1       4.886   5.765  -2.203  1.00  0.00    -0.002 A 
ATOM     16  C   UNL     1       5.599   6.027  -3.410  1.00  0.00    -0.002 A 
ENDROOT
BRANCH   1  17
ATOM     17  C   UNL     1       2.247   7.312   0.092  1.00  0.00    -0.018 A 
ATOM     18  C   UNL     1       0.329   9.048   1.225  1.00  0.00     0.119 A 
ATOM     19  C   UNL     1       1.643   9.476   1.016  1.00  0.00     0.047 A 
ATOM     20  C   UNL     1      -0.023   7.745   0.876  1.00  0.00     0.047 A 
ATOM     21  C   UNL     1       2.594   8.620   0.455  1.00  0.00     0.012 A 
ATOM     22  C   UNL     1       0.929   6.886   0.313  1.00  0.00     0.012 A 
BRANCH  18  23
ATOM     23  O   UNL     1      -0.488   9.987   1.789  1.00  0.00    -0.490 OA
BRANCH  23  24
ATOM     24  C   UNL     1      -0.049  10.676   2.960  1.00  0.00     0.257 C 
BRANCH  24  25
ATOM     25  C   UNL     1      -1.048  11.732   3.337  1.00  0.00     0.006 C 
ATOM     26  C   UNL     1      -2.376  11.555   3.346  1.00  0.00     0.007 C 
ENDBRANCH  24  25
ENDBRANCH  23  24
ENDBRANCH  18  23
ENDBRANCH   1  17
BRANCH   8  27
ATOM     27  C   UNL     1       8.244   4.481  -5.700  1.00  0.00    -0.018 A 
ATOM     28  C   UNL     1       8.611   3.302  -5.036  1.00  0.00     0.012 A 
ATOM     29  C   UNL     1       8.855   4.776  -6.926  1.00  0.00     0.012 A 
ATOM     30  C   UNL     1       9.561   2.431  -5.586  1.00  0.00     0.047 A 
ATOM     31  C   UNL     1       9.802   3.906  -7.473  1.00  0.00     0.047 A 
ATOM     32  C   UNL     1      10.159   2.731  -6.809  1.00  0.00     0.119 A 
BRANCH  32  33
ATOM     33  O   UNL     1      11.095   1.972  -7.457  1.00  0.00    -0.490 OA
BRANCH  33  34
ATOM     34  C   UNL     1      11.102   0.574  -7.181  1.00  0.00     0.257 C 
BRANCH  34  35
ATOM     35  C   UNL     1       9.923  -0.027  -7.884  1.00  0.00     0.006 C 
ATOM     36  C   UNL     1       8.754  -0.328  -7.301  1.00  0.00     0.007 C 
ENDBRANCH  34  35
ENDBRANCH  33  34
ENDBRANCH  32  33
ENDBRANCH   8  27
TORSDOF 8
ENDMDL
MODEL 15
REMARK VINA RESULT:    -8.865      2.082      9.446
REMARK INTER + INTRA:         -17.668
REMARK INTER:                 -15.646
REMARK INTRA:                  -2.023
REMARK UNBOUND:                -0.511
REMARK SMILES C=CCOc1ccc(-c2ccc3ccc4c(-c5ccc(OCC=C)cc5)ccc5ccc2c3c54)cc1
REMARK SMILES IDX 9 1 10 2 11 3 12 4 13 5 14 6 15 7 16 8 27 9 28 10 29 11
REMARK SMILES IDX 30 12 31 13 32 14 33 15 34 16 8 17 5 18 6 19 36 20 7 21
REMARK SMILES IDX 35 22 4 23 3 24 2 25 1 26 17 27 18 28 26 29 19 30 25 31
REMARK SMILES IDX 20 32 21 33 22 34 23 35 24 36
REMARK H PARENT
REMARK Flexibility Score: inf
ROOT
ATOM      1  C   UNL     1       0.846   5.640  -1.017  1.00  0.00    -0.010 A 
ATOM      2  C   UNL     1       0.280   6.905  -1.243  1.00  0.00     0.010 A 
ATOM      3  C   UNL     1       0.893   7.824  -2.090  1.00  0.00     0.009 A 
ATOM      4  C   UNL     1       2.090   7.502  -2.736  1.00  0.00    -0.017 A 
ATOM      5  C   UNL     1       2.704   8.426  -3.583  1.00  0.00     0.009 A 
ATOM      6  C   UNL     1       3.898   8.113  -4.232  1.00  0.00     0.010 A 
ATOM      7  C   UNL     1       4.529   6.863  -4.061  1.00  0.00    -0.009 A 
ATOM      8  C   UNL     1       5.746   6.517  -4.712  1.00  0.00    -0.010 A 
ATOM      9  C   UNL     1       6.313   5.253  -4.485  1.00  0.00     0.010 A 
ATOM     10  C   UNL     1       5.701   4.335  -3.636  1.00  0.00     0.009 A 
ATOM     11  C   UNL     1       4.504   4.656  -2.990  1.00  0.00    -0.017 A 
ATOM     12  C   UNL     1       3.892   3.734  -2.140  1.00  0.00     0.009 A 
ATOM     13  C   UNL     1       2.698   4.047  -1.491  1.00  0.00     0.010 A 
ATOM     14  C   UNL     1       2.065   5.294  -1.666  1.00  0.00    -0.009 A 
ATOM     15  C   UNL     1       2.686   6.235  -2.530  1.00  0.00    -0.002 A 
ATOM     16  C   UNL     1       3.908   5.922  -3.196  1.00  0.00    -0.002 A 
ENDROOT
BRANCH   1  17
ATOM     17  C   UNL     1       0.143   4.722  -0.107  1.00  0.00    -0.018 A 
ATOM     18  C   UNL     1      -1.206   2.971   1.651  1.00  0.00     0.119 A 
ATOM     19  C   UNL     1      -1.738   3.269   0.394  1.00  0.00     0.047 A 
ATOM     20  C   UNL     1      -0.001   3.558   2.033  1.00  0.00     0.047 A 
ATOM     21  C   UNL     1      -1.073   4.134  -0.479  1.00  0.00     0.012 A 
ATOM     22  C   UNL     1       0.668   4.426   1.159  1.00  0.00     0.012 A 
BRANCH  18  23
ATOM     23  O   UNL     1      -1.968   2.120   2.400  1.00  0.00    -0.490 OA
BRANCH  23  24
ATOM     24  C   UNL     1      -1.734   0.715   2.308  1.00  0.00     0.257 C 
BRANCH  24  25
ATOM     25  C   UNL     1      -1.276   0.183   3.635  1.00  0.00     0.006 C 
ATOM     26  C   UNL     1      -0.151   0.559   4.259  1.00  0.00     0.007 C 
ENDBRANCH  24  25
ENDBRANCH  23  24
ENDBRANCH  18  23
ENDBRANCH   1  17
BRANCH   8  27
ATOM     27  C   UNL     1       6.446   7.435  -5.625  1.00  0.00    -0.018 A 
ATOM     28  C   UNL     1       6.787   7.034  -6.924  1.00  0.00     0.012 A 
ATOM     29  C   UNL     1       6.791   8.729  -5.213  1.00  0.00     0.012 A 
ATOM     30  C   UNL     1       7.450   7.905  -7.797  1.00  0.00     0.047 A 
ATOM     31  C   UNL     1       7.453   9.597  -6.085  1.00  0.00     0.047 A 
ATOM     32  C   UNL     1       7.784   9.192  -7.380  1.00  0.00     0.119 A 
BRANCH  32  33
ATOM     33  O   UNL     1       8.428  10.141  -8.126  1.00  0.00    -0.490 OA
BRANCH  33  34
ATOM     34  C   UNL     1       7.872  11.453  -8.128  1.00  0.00     0.257 C 
BRANCH  34  35
ATOM     35  C   UNL     1       8.951  12.396  -8.569  1.00  0.00     0.006 C 
ATOM     36  C   UNL     1       9.924  12.869  -7.778  1.00  0.00     0.007 C 
ENDBRANCH  34  35
ENDBRANCH  33  34
ENDBRANCH  32  33
ENDBRANCH   8  27
TORSDOF 8
REMARK SMILES C=CCOc1ccc(-c2ccc3ccc4c(-c5ccc(OCC=C)cc5)ccc5ccc2c3c54)cc1
REMARK SMILES IDX 9 1 10 2 11 3 12 4 13 5 14 6 15 7 16 8 27 9 28 10 29 11
REMARK SMILES IDX 30 12 31 13 32 14 33 15 34 16 8 17 5 18 6 19 36 20 7 21
REMARK SMILES IDX 35 22 4 23 3 24 2 25 1 26 17 27 18 28 26 29 19 30 25 31
REMARK SMILES IDX 20 32 21 33 22 34 23 35 24 36
REMARK H PARENT
REMARK Flexibility Score: inf
ROOT
ATOM      1  C   UNL     1       2.422   8.023   1.298  1.00  0.00    -0.010 A 
ATOM      2  C   UNL     1       2.275   9.316   0.771  1.00  0.00     0.010 A 
ATOM      3  C   UNL     1       3.217   9.844  -0.107  1.00  0.00     0.009 A 
ATOM      4  C   UNL     1       4.333   9.093  -0.483  1.00  0.00    -0.017 A 
ATOM      5  C   UNL     1       5.278   9.625  -1.362  1.00  0.00     0.009 A 
ATOM      6  C   UNL     1       6.395   8.882  -1.743  1.00  0.00     0.010 A 
ATOM      7  C   UNL     1       6.614   7.575  -1.261  1.00  0.00    -0.009 A 
ATOM      8  C   UNL     1       7.744   6.794  -1.634  1.00  0.00    -0.010 A 
ATOM      9  C   UNL     1       7.893   5.502  -1.106  1.00  0.00     0.010 A 
ATOM     10  C   UNL     1       6.952   4.975  -0.226  1.00  0.00     0.009 A 
ATOM     11  C   UNL     1       5.835   5.726   0.150  1.00  0.00    -0.017 A 
ATOM     12  C   UNL     1       4.892   5.195   1.032  1.00  0.00     0.009 A 
ATOM     13  C   UNL     1       3.775   5.938   1.412  1.00  0.00     0.010 A 
ATOM     14  C   UNL     1       3.553   7.242   0.927  1.00  0.00    -0.009 A 
ATOM     15  C   UNL     1       4.512   7.786   0.029  1.00  0.00    -0.002 A 
ATOM     16  C   UNL     1       5.656   7.032  -0.363  1.00  0.00    -0.002 A 
ENDROOT
BRANCH   1  17
ATOM     17  C   UNL     1       1.388   7.532   2.222  1.00  0.00    -0.018 A 
ATOM     18  C   UNL     1      -0.591   6.599   4.007  1.00  0.00     0.119 A 
ATOM     19  C   UNL     1      -0.948   7.249   2.823  1.00  0.00     0.047 A 
ATOM     20  C   UNL     1       0.760   6.425   4.303  1.00  0.00     0.047 A 
ATOM     21  C   UNL     1       0.028   7.711   1.937  1.00  0.00     0.012 A 
ATOM     22  C   UNL     1       1.740   6.888   3.416  1.00  0.00     0.012 A 
BRANCH  18  23
ATOM     23  O   UNL     1      -1.648   6.210   4.780  1.00  0.00    -0.490 OA
BRANCH  23  24
ATOM     24  C   UNL     1      -1.426   5.293   5.851  1.00  0.00     0.257 C 
BRANCH  24  25
ATOM     25  C   UNL     1      -1.663   3.887   5.380  1.00  0.00     0.006 C 
ATOM     26  C   UNL     1      -2.665   3.103   5.799  1.00  0.00     0.007 C 
ENDBRANCH  24  25
ENDBRANCH  23  24
ENDBRANCH  18  23
ENDBRANCH   1  17
BRANCH   8  27
ATOM     27  C   UNL     1       8.776   7.285  -2.562  1.00  0.00    -0.018 A 
ATOM     28  C   UNL     1       9.272   6.463  -3.584  1.00  0.00     0.012 A 
ATOM     29  C   UNL     1       9.289   8.584  -2.440  1.00  0.00     0.012 A 
ATOM     30  C   UNL     1      10.252   6.927  -4.470  1.00  0.00     0.047 A 
ATOM     31  C   UNL     1      10.266   9.044  -3.326  1.00  0.00     0.047 A 
ATOM     32  C   UNL     1      10.752   8.222  -4.344  1.00  0.00     0.119 A 
BRANCH  32  33
ATOM     33  O   UNL     1      11.704   8.801  -5.138  1.00  0.00    -0.490 OA
BRANCH  33  34
ATOM     34  C   UNL     1      11.286   9.875  -5.976  1.00  0.00     0.257 C 
BRANCH  34  35
ATOM     35  C   UNL     1      11.684   9.530  -7.379  1.00  0.00     0.006 C 
ATOM     36  C   UNL     1      11.464   8.346  -7.969  1.00  0.00     0.007 C 
ENDBRANCH  34  35
ENDBRANCH  33  34
ENDBRANCH  32  33
ENDBRANCH   8  27
TORSDOF 8
ENDMDL
MODEL 16
REMARK VINA RESULT:    -8.787      1.860      4.896
REMARK INTER + INTRA:         -17.518
REMARK INTER:                 -15.714
REMARK INTRA:                  -1.804
REMARK UNBOUND:                -0.511
REMARK SMILES C=CCOc1ccc(-c2ccc3ccc4c(-c5ccc(OCC=C)cc5)ccc5ccc2c3c54)cc1
REMARK SMILES IDX 9 1 10 2 11 3 12 4 13 5 14 6 15 7 16 8 27 9 28 10 29 11
REMARK SMILES IDX 30 12 31 13 32 14 33 15 34 16 8 17 5 18 6 19 36 20 7 21
REMARK SMILES IDX 35 22 4 23 3 24 2 25 1 26 17 27 18 28 26 29 19 30 25 31
REMARK SMILES IDX 20 32 21 33 22 34 23 35 24 36
REMARK H PARENT
REMARK Flexibility Score: inf
ROOT
ATOM      1  C   UNL     1       1.021   5.697  -0.940  1.00  0.00    -0.010 A 
ATOM      2  C   UNL     1       0.440   6.932  -1.271  1.00  0.00     0.010 A 
ATOM      3  C   UNL     1       1.012   7.759  -2.233  1.00  0.00     0.009 A 
ATOM      4  C   UNL     1       2.182   7.373  -2.892  1.00  0.00    -0.017 A 
ATOM      5  C   UNL     1       2.755   8.205  -3.856  1.00  0.00     0.009 A 
ATOM      6  C   UNL     1       3.922   7.828  -4.519  1.00  0.00     0.010 A 
ATOM      7  C   UNL     1       4.566   6.603  -4.247  1.00  0.00    -0.009 A 
ATOM      8  C   UNL     1       5.757   6.193  -4.910  1.00  0.00    -0.010 A 
ATOM      9  C   UNL     1       6.339   4.959  -4.578  1.00  0.00     0.010 A 
ATOM     10  C   UNL     1       5.769   4.133  -3.614  1.00  0.00     0.009 A 
ATOM     11  C   UNL     1       4.598   4.519  -2.954  1.00  0.00    -0.017 A 
ATOM     12  C   UNL     1       4.027   3.688  -1.988  1.00  0.00     0.009 A 
ATOM     13  C   UNL     1       2.859   4.066  -1.325  1.00  0.00     0.010 A 
ATOM     14  C   UNL     1       2.213   5.287  -1.601  1.00  0.00    -0.009 A 
ATOM     15  C   UNL     1       2.793   6.135  -2.583  1.00  0.00    -0.002 A 
ATOM     16  C   UNL     1       3.987   5.756  -3.264  1.00  0.00    -0.002 A 
ENDROOT
BRANCH   1  17
ATOM     17  C   UNL     1       0.362   4.878   0.089  1.00  0.00    -0.018 A 
ATOM     18  C   UNL     1      -0.908   3.293   2.051  1.00  0.00     0.119 A 
ATOM     19  C   UNL     1       0.415   3.709   2.217  1.00  0.00     0.047 A 
ATOM     20  C   UNL     1      -1.594   3.662   0.895  1.00  0.00     0.047 A 
ATOM     21  C   UNL     1       1.046   4.494   1.249  1.00  0.00     0.012 A 
ATOM     22  C   UNL     1      -0.963   4.449  -0.077  1.00  0.00     0.012 A 
BRANCH  18  23
ATOM     23  O   UNL     1      -1.392   2.524   3.071  1.00  0.00    -0.490 OA
BRANCH  23  24
ATOM     24  C   UNL     1      -0.474   1.929   3.989  1.00  0.00     0.257 C 
BRANCH  24  25
ATOM     25  C   UNL     1       0.042   0.634   3.431  1.00  0.00     0.006 C 
ATOM     26  C   UNL     1      -0.723  -0.426   3.137  1.00  0.00     0.007 C 
ENDBRANCH  24  25
ENDBRANCH  23  24
ENDBRANCH  18  23
ENDBRANCH   1  17
BRANCH   8  27
ATOM     27  C   UNL     1       6.412   7.012  -5.941  1.00  0.00    -0.018 A 
ATOM     28  C   UNL     1       6.517   6.555  -7.263  1.00  0.00     0.012 A 
ATOM     29  C   UNL     1       6.951   8.267  -5.624  1.00  0.00     0.012 A 
ATOM     30  C   UNL     1       7.138   7.332  -8.248  1.00  0.00     0.047 A 
ATOM     31  C   UNL     1       7.571   9.041  -6.609  1.00  0.00     0.047 A 
ATOM     32  C   UNL     1       7.666   8.581  -7.923  1.00  0.00     0.119 A 
BRANCH  32  33
ATOM     33  O   UNL     1       8.294   9.440  -8.783  1.00  0.00    -0.490 OA
BRANCH  33  34
ATOM     34  C   UNL     1       7.678  10.706  -9.001  1.00  0.00     0.257 C 
BRANCH  34  35
ATOM     35  C   UNL     1       8.761  11.742  -8.972  1.00  0.00     0.006 C 
ATOM     36  C   UNL     1       9.690  11.852  -8.012  1.00  0.00     0.007 C 
ENDBRANCH  34  35
ENDBRANCH  33  34
ENDBRANCH  32  33
ENDBRANCH   8  27
TORSDOF 8
REMARK SMILES C=CCOc1ccc(-c2ccc3ccc4c(-c5ccc(OCC=C)cc5)ccc5ccc2c3c54)cc1
REMARK SMILES IDX 9 1 10 2 11 3 12 4 13 5 14 6 15 7 16 8 27 9 28 10 29 11
REMARK SMILES IDX 30 12 31 13 32 14 33 15 34 16 8 17 5 18 6 19 36 20 7 21
REMARK SMILES IDX 35 22 4 23 3 24 2 25 1 26 17 27 18 28 26 29 19 30 25 31
REMARK SMILES IDX 20 32 21 33 22 34 23 35 24 36
REMARK H PARENT
REMARK Flexibility Score: inf
ROOT
ATOM      1  C   UNL     1       7.978   6.536  -1.928  1.00  0.00    -0.010 A 
ATOM      2  C   UNL     1       8.153   5.300  -1.285  1.00  0.00     0.010 A 
ATOM      3  C   UNL     1       7.256   4.862  -0.315  1.00  0.00     0.009 A 
ATOM      4  C   UNL     1       6.156   5.648   0.038  1.00  0.00    -0.017 A 
ATOM      5  C   UNL     1       5.259   5.207   1.012  1.00  0.00     0.009 A 
ATOM      6  C   UNL     1       4.159   5.986   1.371  1.00  0.00     0.010 A 
ATOM      7  C   UNL     1       3.910   7.237   0.771  1.00  0.00    -0.009 A 
ATOM      8  C   UNL     1       2.794   8.051   1.116  1.00  0.00    -0.010 A 
ATOM      9  C   UNL     1       2.619   9.287   0.475  1.00  0.00     0.010 A 
ATOM     10  C   UNL     1       3.517   9.727  -0.493  1.00  0.00     0.009 A 
ATOM     11  C   UNL     1       4.618   8.940  -0.847  1.00  0.00    -0.017 A 
ATOM     12  C   UNL     1       5.517   9.382  -1.819  1.00  0.00     0.009 A 
ATOM     13  C   UNL     1       6.617   8.604  -2.177  1.00  0.00     0.010 A 
ATOM     14  C   UNL     1       6.863   7.351  -1.581  1.00  0.00    -0.009 A 
ATOM     15  C   UNL     1       5.950   6.898  -0.591  1.00  0.00    -0.002 A 
ATOM     16  C   UNL     1       4.824   7.690  -0.219  1.00  0.00    -0.002 A 
ENDROOT
BRANCH   1  17
ATOM     17  C   UNL     1       8.967   6.934  -2.941  1.00  0.00    -0.018 A 
ATOM     18  C   UNL     1      10.857   7.692  -4.897  1.00  0.00     0.119 A 
ATOM     19  C   UNL     1      10.418   8.608  -3.938  1.00  0.00     0.047 A 
ATOM     20  C   UNL     1      10.342   6.397  -4.883  1.00  0.00     0.047 A 
ATOM     21  C   UNL     1       9.483   8.236  -2.968  1.00  0.00     0.012 A 
ATOM     22  C   UNL     1       9.406   6.022  -3.912  1.00  0.00     0.012 A 
BRANCH  18  23
ATOM     23  O   UNL     1      11.763   8.196  -5.787  1.00  0.00    -0.490 OA
BRANCH  23  24
ATOM     24  C   UNL     1      11.297   8.724  -7.029  1.00  0.00     0.257 C 
BRANCH  24  25
ATOM     25  C   UNL     1      11.690   7.811  -8.154  1.00  0.00     0.006 C 
ATOM     26  C   UNL     1      10.887   6.886  -8.699  1.00  0.00     0.007 C 
ENDBRANCH  24  25
ENDBRANCH  23  24
ENDBRANCH  18  23
ENDBRANCH   1  17
BRANCH   8  27
ATOM     27  C   UNL     1       1.803   7.649   2.127  1.00  0.00    -0.018 A 
ATOM     28  C   UNL     1       0.437   7.900   1.932  1.00  0.00     0.012 A 
ATOM     29  C   UNL     1       2.203   7.011   3.309  1.00  0.00     0.012 A 
ATOM     30  C   UNL     1      -0.511   7.518   2.890  1.00  0.00     0.047 A 
ATOM     31  C   UNL     1       1.256   6.630   4.263  1.00  0.00     0.047 A 
ATOM     32  C   UNL     1      -0.103   6.878   4.060  1.00  0.00     0.119 A 
BRANCH  32  33
ATOM     33  O   UNL     1      -0.918   6.452   5.072  1.00  0.00    -0.490 OA
BRANCH  33  34
ATOM     34  C   UNL     1      -2.089   5.730   4.702  1.00  0.00     0.257 C 
BRANCH  34  35
ATOM     35  C   UNL     1      -2.460   4.854   5.861  1.00  0.00     0.006 C 
ATOM     36  C   UNL     1      -3.221   3.754   5.777  1.00  0.00     0.007 C 
ENDBRANCH  34  35
ENDBRANCH  33  34
ENDBRANCH  32  33
ENDBRANCH   8  27
TORSDOF 8
ENDMDL
MODEL 17
REMARK VINA RESULT:    -8.757      1.988     11.319
REMARK INTER + INTRA:         -17.458
REMARK INTER:                 -15.286
REMARK INTRA:                  -2.172
REMARK UNBOUND:                -0.511
REMARK SMILES C=CCOc1ccc(-c2ccc3ccc4c(-c5ccc(OCC=C)cc5)ccc5ccc2c3c54)cc1
REMARK SMILES IDX 9 1 10 2 11 3 12 4 13 5 14 6 15 7 16 8 27 9 28 10 29 11
REMARK SMILES IDX 30 12 31 13 32 14 33 15 34 16 8 17 5 18 6 19 36 20 7 21
REMARK SMILES IDX 35 22 4 23 3 24 2 25 1 26 17 27 18 28 26 29 19 30 25 31
REMARK SMILES IDX 20 32 21 33 22 34 23 35 24 36
REMARK H PARENT
REMARK Flexibility Score: inf
ROOT
ATOM      1  C   UNL     1       5.545   6.346  -4.780  1.00  0.00    -0.010 A 
ATOM      2  C   UNL     1       6.166   5.119  -4.493  1.00  0.00     0.010 A 
ATOM      3  C   UNL     1       5.626   4.244  -3.555  1.00  0.00     0.009 A 
ATOM      4  C   UNL     1       4.449   4.572  -2.876  1.00  0.00    -0.017 A 
ATOM      5  C   UNL     1       3.911   3.694  -1.934  1.00  0.00     0.009 A 
ATOM      6  C   UNL     1       2.737   4.014  -1.252  1.00  0.00     0.010 A 
ATOM      7  C   UNL     1       2.052   5.224  -1.484  1.00  0.00    -0.009 A 
ATOM      8  C   UNL     1       0.851   5.575  -0.804  1.00  0.00    -0.010 A 
ATOM      9  C   UNL     1       0.232   6.801  -1.089  1.00  0.00     0.010 A 
ATOM     10  C   UNL     1       0.772   7.677  -2.026  1.00  0.00     0.009 A 
ATOM     11  C   UNL     1       1.950   7.350  -2.705  1.00  0.00    -0.017 A 
ATOM     12  C   UNL     1       2.490   8.229  -3.645  1.00  0.00     0.009 A 
ATOM     13  C   UNL     1       3.664   7.909  -4.327  1.00  0.00     0.010 A 
ATOM     14  C   UNL     1       4.346   6.697  -4.099  1.00  0.00    -0.009 A 
ATOM     15  C   UNL     1       3.799   5.801  -3.141  1.00  0.00    -0.002 A 
ATOM     16  C   UNL     1       2.599   6.121  -2.441  1.00  0.00    -0.002 A 
ENDROOT
BRANCH   1  17
ATOM     17  C   UNL     1       6.174   7.220  -5.782  1.00  0.00    -0.018 A 
ATOM     18  C   UNL     1       7.368   8.897  -7.715  1.00  0.00     0.119 A 
ATOM     19  C   UNL     1       7.349   9.264  -6.367  1.00  0.00     0.047 A 
ATOM     20  C   UNL     1       6.779   7.693  -8.098  1.00  0.00     0.047 A 
ATOM     21  C   UNL     1       6.760   8.436  -5.408  1.00  0.00     0.012 A 
ATOM     22  C   UNL     1       6.188   6.861  -7.138  1.00  0.00     0.012 A 
BRANCH  18  23
ATOM     23  O   UNL     1       7.967   9.806  -8.540  1.00  0.00    -0.490 OA
BRANCH  23  24
ATOM     24  C   UNL     1       7.310  11.046  -8.802  1.00  0.00     0.257 C 
BRANCH  24  25
ATOM     25  C   UNL     1       8.208  12.191  -8.434  1.00  0.00     0.006 C 
ATOM     26  C   UNL     1       8.065  12.949  -7.338  1.00  0.00     0.007 C 
ENDBRANCH  24  25
ENDBRANCH  23  24
ENDBRANCH  18  23
ENDBRANCH   1  17
BRANCH   8  27
ATOM     27  C   UNL     1       0.221   4.697   0.195  1.00  0.00    -0.018 A 
ATOM     28  C   UNL     1       0.852   4.437   1.421  1.00  0.00     0.012 A 
ATOM     29  C   UNL     1      -1.019   4.097  -0.059  1.00  0.00     0.012 A 
ATOM     30  C   UNL     1       0.255   3.604   2.375  1.00  0.00     0.047 A 
ATOM     31  C   UNL     1      -1.613   3.266   0.895  1.00  0.00     0.047 A 
ATOM     32  C   UNL     1      -0.982   3.016   2.116  1.00  0.00     0.119 A 
BRANCH  32  33
ATOM     33  O   UNL     1      -1.674   2.188   2.956  1.00  0.00    -0.490 OA
BRANCH  33  34
ATOM     34  C   UNL     1      -1.312   0.810   2.953  1.00  0.00     0.257 C 
BRANCH  34  35
ATOM     35  C   UNL     1      -0.043   0.679   3.739  1.00  0.00     0.006 C 
ATOM     36  C   UNL     1       0.830  -0.332   3.623  1.00  0.00     0.007 C 
ENDBRANCH  34  35
ENDBRANCH  33  34
ENDBRANCH  32  33
ENDBRANCH   8  27
TORSDOF 8
REMARK SMILES C=CCOc1ccc(-c2ccc3ccc4c(-c5ccc(OCC=C)cc5)ccc5ccc2c3c54)cc1
REMARK SMILES IDX 9 1 10 2 11 3 12 4 13 5 14 6 15 7 16 8 27 9 28 10 29 11
REMARK SMILES IDX 30 12 31 13 32 14 33 15 34 16 8 17 5 18 6 19 36 20 7 21
REMARK SMILES IDX 35 22 4 23 3 24 2 25 1 26 17 27 18 28 26 29 19 30 25 31
REMARK SMILES IDX 20 32 21 33 22 34 23 35 24 36
REMARK H PARENT
REMARK Flexibility Score: inf
ROOT
ATOM      1  C   UNL     1       2.735   8.042   1.144  1.00  0.00    -0.010 A 
ATOM      2  C   UNL     1       2.559   9.284   0.513  1.00  0.00     0.010 A 
ATOM      3  C   UNL     1       3.460   9.735  -0.447  1.00  0.00     0.009 A 
ATOM      4  C   UNL     1       4.563   8.956  -0.804  1.00  0.00    -0.017 A 
ATOM      5  C   UNL     1       5.466   9.412  -1.766  1.00  0.00     0.009 A 
ATOM      6  C   UNL     1       6.570   8.640  -2.128  1.00  0.00     0.010 A 
ATOM      7  C   UNL     1       6.817   7.381  -1.544  1.00  0.00    -0.009 A 
ATOM      8  C   UNL     1       7.935   6.572  -1.896  1.00  0.00    -0.010 A 
ATOM      9  C   UNL     1       8.113   5.331  -1.265  1.00  0.00     0.010 A 
ATOM     10  C   UNL     1       7.213   4.881  -0.303  1.00  0.00     0.009 A 
ATOM     11  C   UNL     1       6.109   5.660   0.055  1.00  0.00    -0.017 A 
ATOM     12  C   UNL     1       5.207   5.206   1.019  1.00  0.00     0.009 A 
ATOM     13  C   UNL     1       4.103   5.977   1.381  1.00  0.00     0.010 A 
ATOM     14  C   UNL     1       3.854   7.234   0.793  1.00  0.00    -0.009 A 
ATOM     15  C   UNL     1       4.770   7.699  -0.188  1.00  0.00    -0.002 A 
ATOM     16  C   UNL     1       5.901   6.916  -0.562  1.00  0.00    -0.002 A 
ENDROOT
BRANCH   1  17
ATOM     17  C   UNL     1       1.744   7.632   2.150  1.00  0.00    -0.018 A 
ATOM     18  C   UNL     1      -0.151   6.853   4.093  1.00  0.00     0.119 A 
ATOM     19  C   UNL     1      -0.560   7.448   2.897  1.00  0.00     0.047 A 
ATOM     20  C   UNL     1       1.210   6.656   4.321  1.00  0.00     0.047 A 
ATOM     21  C   UNL     1       0.375   7.834   1.933  1.00  0.00     0.012 A 
ATOM     22  C   UNL     1       2.149   7.042   3.356  1.00  0.00     0.012 A 
BRANCH  18  23
ATOM     23  O   UNL     1      -1.171   6.537   4.945  1.00  0.00    -0.490 OA
BRANCH  23  24
ATOM     24  C   UNL     1      -2.344   5.912   4.424  1.00  0.00     0.257 C 
BRANCH  24  25
ATOM     25  C   UNL     1      -2.642   4.658   5.193  1.00  0.00     0.006 C 
ATOM     26  C   UNL     1      -1.736   3.960   5.893  1.00  0.00     0.007 C 
ENDBRANCH  24  25
ENDBRANCH  23  24
ENDBRANCH  18  23
ENDBRANCH   1  17
BRANCH   8  27
ATOM     27  C   UNL     1       8.923   6.983  -2.906  1.00  0.00    -0.018 A 
ATOM     28  C   UNL     1       9.604   8.203  -2.790  1.00  0.00     0.012 A 
ATOM     29  C   UNL     1       9.202   6.165  -4.010  1.00  0.00     0.012 A 
ATOM     30  C   UNL     1      10.547   8.598  -3.747  1.00  0.00     0.047 A 
ATOM     31  C   UNL     1      10.143   6.560  -4.964  1.00  0.00     0.047 A 
ATOM     32  C   UNL     1      10.821   7.774  -4.838  1.00  0.00     0.119 A 
BRANCH  32  33
ATOM     33  O   UNL     1      11.714   8.034  -5.841  1.00  0.00    -0.490 OA
BRANCH  33  34
ATOM     34  C   UNL     1      11.244   7.907  -7.180  1.00  0.00     0.257 C 
BRANCH  34  35
ATOM     35  C   UNL     1      11.126   9.290  -7.747  1.00  0.00     0.006 C 
ATOM     36  C   UNL     1      11.482  10.413  -7.107  1.00  0.00     0.007 C 
ENDBRANCH  34  35
ENDBRANCH  33  34
ENDBRANCH  32  33
ENDBRANCH   8  27
TORSDOF 8
ENDMDL
MODEL 18
REMARK VINA RESULT:    -8.667      2.723      7.412
REMARK INTER + INTRA:         -17.285
REMARK INTER:                 -15.018
REMARK INTRA:                  -2.267
REMARK UNBOUND:                -0.511
REMARK SMILES C=CCOc1ccc(-c2ccc3ccc4c(-c5ccc(OCC=C)cc5)ccc5ccc2c3c54)cc1
REMARK SMILES IDX 9 1 10 2 11 3 12 4 13 5 14 6 15 7 16 8 27 9 28 10 29 11
REMARK SMILES IDX 30 12 31 13 32 14 33 15 34 16 8 17 5 18 6 19 36 20 7 21
REMARK SMILES IDX 35 22 4 23 3 24 2 25 1 26 17 27 18 28 26 29 19 30 25 31
REMARK SMILES IDX 20 32 21 33 22 34 23 35 24 36
REMARK H PARENT
REMARK Flexibility Score: inf
ROOT
ATOM      1  C   UNL     1       2.040   7.394   1.777  1.00  0.00    -0.010 A 
ATOM      2  C   UNL     1       2.210   6.097   2.287  1.00  0.00     0.010 A 
ATOM      3  C   UNL     1       3.311   5.323   1.928  1.00  0.00     0.009 A 
ATOM      4  C   UNL     1       4.273   5.827   1.049  1.00  0.00    -0.017 A 
ATOM      5  C   UNL     1       5.375   5.049   0.690  1.00  0.00     0.009 A 
ATOM      6  C   UNL     1       6.340   5.543  -0.187  1.00  0.00     0.010 A 
ATOM      7  C   UNL     1       6.245   6.837  -0.741  1.00  0.00    -0.009 A 
ATOM      8  C   UNL     1       7.216   7.367  -1.636  1.00  0.00    -0.010 A 
ATOM      9  C   UNL     1       7.046   8.663  -2.147  1.00  0.00     0.010 A 
ATOM     10  C   UNL     1       5.944   9.435  -1.791  1.00  0.00     0.009 A 
ATOM     11  C   UNL     1       4.981   8.932  -0.911  1.00  0.00    -0.017 A 
ATOM     12  C   UNL     1       3.878   9.709  -0.554  1.00  0.00     0.009 A 
ATOM     13  C   UNL     1       2.912   9.215   0.322  1.00  0.00     0.010 A 
ATOM     14  C   UNL     1       3.011   7.924   0.880  1.00  0.00    -0.009 A 
ATOM     15  C   UNL     1       4.132   7.130   0.517  1.00  0.00    -0.002 A 
ATOM     16  C   UNL     1       5.122   7.630  -0.379  1.00  0.00    -0.002 A 
ENDROOT
BRANCH   1  17
ATOM     17  C   UNL     1       0.852   8.151   2.198  1.00  0.00    -0.018 A 
ATOM     18  C   UNL     1      -1.425   9.618   2.998  1.00  0.00     0.119 A 
ATOM     19  C   UNL     1      -1.548   8.304   2.538  1.00  0.00     0.047 A 
ATOM     20  C   UNL     1      -0.161  10.202   3.048  1.00  0.00     0.047 A 
ATOM     21  C   UNL     1      -0.424   7.576   2.143  1.00  0.00     0.012 A 
ATOM     22  C   UNL     1       0.968   9.473   2.652  1.00  0.00     0.012 A 
BRANCH  18  23
ATOM     23  O   UNL     1      -2.608  10.210   3.341  1.00  0.00    -0.490 OA
BRANCH  23  24
ATOM     24  C   UNL     1      -2.585  11.417   4.101  1.00  0.00     0.257 C 
BRANCH  24  25
ATOM     25  C   UNL     1      -3.052  12.566   3.255  1.00  0.00     0.006 C 
ATOM     26  C   UNL     1      -2.555  12.873   2.048  1.00  0.00     0.007 C 
ENDBRANCH  24  25
ENDBRANCH  23  24
ENDBRANCH  18  23
ENDBRANCH   1  17
BRANCH   8  27
ATOM     27  C   UNL     1       8.407   6.609  -2.053  1.00  0.00    -0.018 A 
ATOM     28  C   UNL     1       9.144   5.862  -1.123  1.00  0.00     0.012 A 
ATOM     29  C   UNL     1       8.833   6.622  -3.388  1.00  0.00     0.012 A 
ATOM     30  C   UNL     1      10.276   5.137  -1.516  1.00  0.00     0.047 A 
ATOM     31  C   UNL     1       9.963   5.899  -3.778  1.00  0.00     0.047 A 
ATOM     32  C   UNL     1      10.688   5.152  -2.847  1.00  0.00     0.119 A 
BRANCH  32  33
ATOM     33  O   UNL     1      11.769   4.492  -3.365  1.00  0.00    -0.490 OA
BRANCH  33  34
ATOM     34  C   UNL     1      11.537   3.198  -3.916  1.00  0.00     0.257 C 
BRANCH  34  35
ATOM     35  C   UNL     1      11.706   3.308  -5.402  1.00  0.00     0.006 C 
ATOM     36  C   UNL     1      10.720   3.159  -6.298  1.00  0.00     0.007 C 
ENDBRANCH  34  35
ENDBRANCH  33  34
ENDBRANCH  32  33
ENDBRANCH   8  27
TORSDOF 8
REMARK SMILES C=CCOc1ccc(-c2ccc3ccc4c(-c5ccc(OCC=C)cc5)ccc5ccc2c3c54)cc1
REMARK SMILES IDX 9 1 10 2 11 3 12 4 13 5 14 6 15 7 16 8 27 9 28 10 29 11
REMARK SMILES IDX 30 12 31 13 32 14 33 15 34 16 8 17 5 18 6 19 36 20 7 21
REMARK SMILES IDX 35 22 4 23 3 24 2 25 1 26 17 27 18 28 26 29 19 30 25 31
REMARK SMILES IDX 20 32 21 33 22 34 23 35 24 36
REMARK H PARENT
REMARK Flexibility Score: inf
ROOT
ATOM      1  C   UNL     1       0.430   7.111  -1.523  1.00  0.00    -0.010 A 
ATOM      2  C   UNL     1       0.124   5.990  -0.735  1.00  0.00     0.010 A 
ATOM      3  C   UNL     1       0.956   4.874  -0.722  1.00  0.00     0.009 A 
ATOM      4  C   UNL     1       2.118   4.848  -1.497  1.00  0.00    -0.017 A 
ATOM      5  C   UNL     1       2.949   3.727  -1.484  1.00  0.00     0.009 A 
ATOM      6  C   UNL     1       4.110   3.692  -2.255  1.00  0.00     0.010 A 
ATOM      7  C   UNL     1       4.490   4.778  -3.071  1.00  0.00    -0.009 A 
ATOM      8  C   UNL     1       5.671   4.770  -3.866  1.00  0.00    -0.010 A 
ATOM      9  C   UNL     1       5.976   5.889  -4.656  1.00  0.00     0.010 A 
ATOM     10  C   UNL     1       5.144   7.005  -4.671  1.00  0.00     0.009 A 
ATOM     11  C   UNL     1       3.981   7.032  -3.895  1.00  0.00    -0.017 A 
ATOM     12  C   UNL     1       3.148   8.152  -3.911  1.00  0.00     0.009 A 
ATOM     13  C   UNL     1       1.987   8.186  -3.140  1.00  0.00     0.010 A 
ATOM     14  C   UNL     1       1.610   7.103  -2.320  1.00  0.00    -0.009 A 
ATOM     15  C   UNL     1       2.455   5.961  -2.303  1.00  0.00    -0.002 A 
ATOM     16  C   UNL     1       3.644   5.919  -3.089  1.00  0.00    -0.002 A 
ENDROOT
BRANCH   1  17
ATOM     17  C   UNL     1      -0.496   8.254  -1.488  1.00  0.00    -0.018 A 
ATOM     18  C   UNL     1      -2.286  10.436  -1.415  1.00  0.00     0.119 A 
ATOM     19  C   UNL     1      -1.038  10.517  -0.792  1.00  0.00     0.047 A 
ATOM     20  C   UNL     1      -2.643   9.257  -2.067  1.00  0.00     0.047 A 
ATOM     21  C   UNL     1      -0.149   9.439  -0.827  1.00  0.00     0.012 A 
ATOM     22  C   UNL     1      -1.754   8.176  -2.103  1.00  0.00     0.012 A 
BRANCH  18  23
ATOM     23  O   UNL     1      -3.053  11.560  -1.291  1.00  0.00    -0.490 OA
BRANCH  23  24
ATOM     24  C   UNL     1      -2.993  12.558  -2.310  1.00  0.00     0.257 C 
BRANCH  24  25
ATOM     25  C   UNL     1      -2.477  13.846  -1.737  1.00  0.00     0.006 C 
ATOM     26  C   UNL     1      -1.179  14.156  -1.607  1.00  0.00     0.007 C 
ENDBRANCH  24  25
ENDBRANCH  23  24
ENDBRANCH  18  23
ENDBRANCH   1  17
BRANCH   8  27
ATOM     27  C   UNL     1       6.598   3.628  -3.896  1.00  0.00    -0.018 A 
ATOM     28  C   UNL     1       7.298   3.241  -2.744  1.00  0.00     0.012 A 
ATOM     29  C   UNL     1       6.806   2.905  -5.079  1.00  0.00     0.012 A 
ATOM     30  C   UNL     1       8.180   2.153  -2.768  1.00  0.00     0.047 A 
ATOM     31  C   UNL     1       7.687   1.820  -5.100  1.00  0.00     0.047 A 
ATOM     32  C   UNL     1       8.376   1.437  -3.948  1.00  0.00     0.119 A 
BRANCH  32  33
ATOM     33  O   UNL     1       9.202   0.359  -4.110  1.00  0.00    -0.490 OA
BRANCH  33  34
ATOM     34  C   UNL     1       9.022  -0.426  -5.286  1.00  0.00     0.257 C 
BRANCH  34  35
ATOM     35  C   UNL     1      10.361  -0.554  -5.948  1.00  0.00     0.006 C 
ATOM     36  C   UNL     1      11.540  -0.394  -5.329  1.00  0.00     0.007 C 
ENDBRANCH  34  35
ENDBRANCH  33  34
ENDBRANCH  32  33
ENDBRANCH   8  27
TORSDOF 8
ENDMDL
MODEL 19
REMARK VINA RESULT:    -8.494      1.748      8.792
REMARK INTER + INTRA:         -16.950
REMARK INTER:                 -15.891
REMARK INTRA:                  -1.059
REMARK UNBOUND:                -0.511
REMARK SMILES C=CCOc1ccc(-c2ccc3ccc4c(-c5ccc(OCC=C)cc5)ccc5ccc2c3c54)cc1
REMARK SMILES IDX 9 1 10 2 11 3 12 4 13 5 14 6 15 7 16 8 27 9 28 10 29 11
REMARK SMILES IDX 30 12 31 13 32 14 33 15 34 16 8 17 5 18 6 19 36 20 7 21
REMARK SMILES IDX 35 22 4 23 3 24 2 25 1 26 17 27 18 28 26 29 19 30 25 31
REMARK SMILES IDX 20 32 21 33 22 34 23 35 24 36
REMARK H PARENT
REMARK Flexibility Score: inf
ROOT
ATOM      1  C   UNL     1       7.029   5.878  -5.019  1.00  0.00    -0.010 A 
ATOM      2  C   UNL     1       6.882   7.142  -5.612  1.00  0.00     0.010 A 
ATOM      3  C   UNL     1       5.764   7.930  -5.353  1.00  0.00     0.009 A 
ATOM      4  C   UNL     1       4.761   7.475  -4.493  1.00  0.00    -0.017 A 
ATOM      5  C   UNL     1       3.640   8.266  -4.237  1.00  0.00     0.009 A 
ATOM      6  C   UNL     1       2.634   7.819  -3.380  1.00  0.00     0.010 A 
ATOM      7  C   UNL     1       2.707   6.563  -2.743  1.00  0.00    -0.009 A 
ATOM      8  C   UNL     1       1.697   6.084  -1.863  1.00  0.00    -0.010 A 
ATOM      9  C   UNL     1       1.842   4.819  -1.272  1.00  0.00     0.010 A 
ATOM     10  C   UNL     1       2.959   4.031  -1.532  1.00  0.00     0.009 A 
ATOM     11  C   UNL     1       3.963   4.485  -2.392  1.00  0.00    -0.017 A 
ATOM     12  C   UNL     1       5.082   3.693  -2.651  1.00  0.00     0.009 A 
ATOM     13  C   UNL     1       6.088   4.140  -3.508  1.00  0.00     0.010 A 
ATOM     14  C   UNL     1       6.017   5.397  -4.140  1.00  0.00    -0.009 A 
ATOM     15  C   UNL     1       4.878   6.205  -3.879  1.00  0.00    -0.002 A 
ATOM     16  C   UNL     1       3.846   5.755  -3.005  1.00  0.00    -0.002 A 
ENDROOT
BRANCH   1  17
ATOM     17  C   UNL     1       8.236   5.101  -5.340  1.00  0.00    -0.018 A 
ATOM     18  C   UNL     1      10.550   3.599  -5.945  1.00  0.00     0.119 A 
ATOM     19  C   UNL     1       9.585   3.847  -6.924  1.00  0.00     0.047 A 
ATOM     20  C   UNL     1      10.351   4.096  -4.657  1.00  0.00     0.047 A 
ATOM     21  C   UNL     1       8.439   4.590  -6.629  1.00  0.00     0.012 A 
ATOM     22  C   UNL     1       9.203   4.841  -4.359  1.00  0.00     0.012 A 
BRANCH  18  23
ATOM     23  O   UNL     1      11.610   2.852  -6.372  1.00  0.00    -0.490 OA
BRANCH  23  24
ATOM     24  C   UNL     1      11.765   1.520  -5.882  1.00  0.00     0.257 C 
BRANCH  24  25
ATOM     25  C   UNL     1      11.396   0.533  -6.952  1.00  0.00     0.006 C 
ATOM     26  C   UNL     1      10.160   0.373  -7.446  1.00  0.00     0.007 C 
ENDBRANCH  24  25
ENDBRANCH  23  24
ENDBRANCH  18  23
ENDBRANCH   1  17
BRANCH   8  27
ATOM     27  C   UNL     1       0.492   6.865  -1.539  1.00  0.00    -0.018 A 
ATOM     28  C   UNL     1       0.367   8.198  -1.957  1.00  0.00     0.012 A 
ATOM     29  C   UNL     1      -0.555   6.295  -0.802  1.00  0.00     0.012 A 
ATOM     30  C   UNL     1      -0.778   8.944  -1.653  1.00  0.00     0.047 A 
ATOM     31  C   UNL     1      -1.697   7.041  -0.501  1.00  0.00     0.047 A 
ATOM     32  C   UNL     1      -1.816   8.366  -0.924  1.00  0.00     0.119 A 
BRANCH  32  33
ATOM     33  O   UNL     1      -2.985   8.977  -0.562  1.00  0.00    -0.490 OA
BRANCH  33  34
ATOM     34  C   UNL     1      -3.231   9.133   0.833  1.00  0.00     0.257 C 
BRANCH  34  35
ATOM     35  C   UNL     1      -3.114  10.594   1.147  1.00  0.00     0.006 C 
ATOM     36  C   UNL     1      -2.017  11.337   0.938  1.00  0.00     0.007 C 
ENDBRANCH  34  35
ENDBRANCH  33  34
ENDBRANCH  32  33
ENDBRANCH   8  27
TORSDOF 8
REMARK SMILES C=CCOc1ccc(-c2ccc3ccc4c(-c5ccc(OCC=C)cc5)ccc5ccc2c3c54)cc1
REMARK SMILES IDX 9 1 10 2 11 3 12 4 13 5 14 6 15 7 16 8 27 9 28 10 29 11
REMARK SMILES IDX 30 12 31 13 32 14 33 15 34 16 8 17 5 18 6 19 36 20 7 21
REMARK SMILES IDX 35 22 4 23 3 24 2 25 1 26 17 27 18 28 26 29 19 30 25 31
REMARK SMILES IDX 20 32 21 33 22 34 23 35 24 36
REMARK H PARENT
REMARK Flexibility Score: inf
ROOT
ATOM      1  C   UNL     1       6.472   7.432  -1.010  1.00  0.00    -0.010 A 
ATOM      2  C   UNL     1       6.851   6.143  -0.601  1.00  0.00     0.010 A 
ATOM      3  C   UNL     1       6.046   5.395   0.253  1.00  0.00     0.009 A 
ATOM      4  C   UNL     1       4.837   5.916   0.722  1.00  0.00    -0.017 A 
ATOM      5  C   UNL     1       4.032   5.165   1.580  1.00  0.00     0.009 A 
ATOM      6  C   UNL     1       2.824   5.677   2.053  1.00  0.00     0.010 A 
ATOM      7  C   UNL     1       2.370   6.961   1.688  1.00  0.00    -0.009 A 
ATOM      8  C   UNL     1       1.141   7.507   2.154  1.00  0.00    -0.010 A 
ATOM      9  C   UNL     1       0.762   8.796   1.748  1.00  0.00     0.010 A 
ATOM     10  C   UNL     1       1.569   9.545   0.895  1.00  0.00     0.009 A 
ATOM     11  C   UNL     1       2.778   9.024   0.425  1.00  0.00    -0.017 A 
ATOM     12  C   UNL     1       3.585   9.777  -0.430  1.00  0.00     0.009 A 
ATOM     13  C   UNL     1       4.793   9.265  -0.903  1.00  0.00     0.010 A 
ATOM     14  C   UNL     1       5.244   7.979  -0.542  1.00  0.00    -0.009 A 
ATOM     15  C   UNL     1       4.425   7.211   0.330  1.00  0.00    -0.002 A 
ATOM     16  C   UNL     1       3.190   7.729   0.817  1.00  0.00    -0.002 A 
ENDROOT
BRANCH   1  17
ATOM     17  C   UNL     1       7.375   8.163  -1.912  1.00  0.00    -0.018 A 
ATOM     18  C   UNL     1       9.109   9.555  -3.653  1.00  0.00     0.119 A 
ATOM     19  C   UNL     1       7.880  10.105  -3.280  1.00  0.00     0.047 A 
ATOM     20  C   UNL     1       9.466   8.300  -3.162  1.00  0.00     0.047 A 
ATOM     21  C   UNL     1       7.020   9.420  -2.418  1.00  0.00     0.012 A 
ATOM     22  C   UNL     1       8.605   7.612  -2.297  1.00  0.00     0.012 A 
BRANCH  18  23
ATOM     23  O   UNL     1       9.840  10.330  -4.507  1.00  0.00    -0.490 OA
BRANCH  23  24
ATOM     24  C   UNL     1       9.385  10.507  -5.849  1.00  0.00     0.257 C 
BRANCH  24  25
ATOM     25  C   UNL     1      10.172   9.628  -6.777  1.00  0.00     0.006 C 
ATOM     26  C   UNL     1      10.164   8.288  -6.748  1.00  0.00     0.007 C 
ENDBRANCH  24  25
ENDBRANCH  23  24
ENDBRANCH  18  23
ENDBRANCH   1  17
BRANCH   8  27
ATOM     27  C   UNL     1       0.237   6.772   3.053  1.00  0.00    -0.018 A 
ATOM     28  C   UNL     1      -1.118   6.608   2.732  1.00  0.00     0.012 A 
ATOM     29  C   UNL     1       0.710   6.223   4.253  1.00  0.00     0.012 A 
ATOM     30  C   UNL     1      -1.981   5.907   3.583  1.00  0.00     0.047 A 
ATOM     31  C   UNL     1      -0.152   5.525   5.101  1.00  0.00     0.047 A 
ATOM     32  C   UNL     1      -1.499   5.361   4.771  1.00  0.00     0.119 A 
BRANCH  32  33
ATOM     33  O   UNL     1      -2.228   4.655   5.689  1.00  0.00    -0.490 OA
BRANCH  33  34
ATOM     34  C   UNL     1      -1.953   3.261   5.804  1.00  0.00     0.257 C 
BRANCH  34  35
ATOM     35  C   UNL     1      -2.027   2.675   4.426  1.00  0.00     0.006 C 
ATOM     36  C   UNL     1      -1.181   1.757   3.937  1.00  0.00     0.007 C 
ENDBRANCH  34  35
ENDBRANCH  33  34
ENDBRANCH  32  33
ENDBRANCH   8  27
TORSDOF 8
ENDMDL
MODEL 20
REMARK VINA RESULT:    -8.446      2.035      8.799
REMARK INTER + INTRA:         -16.857
REMARK INTER:                 -15.614
REMARK INTRA:                  -1.243
REMARK UNBOUND:                -0.511
REMARK SMILES C=CCOc1ccc(-c2ccc3ccc4c(-c5ccc(OCC=C)cc5)ccc5ccc2c3c54)cc1
REMARK SMILES IDX 9 1 10 2 11 3 12 4 13 5 14 6 15 7 16 8 27 9 28 10 29 11
REMARK SMILES IDX 30 12 31 13 32 14 33 15 34 16 8 17 5 18 6 19 36 20 7 21
REMARK SMILES IDX 35 22 4 23 3 24 2 25 1 26 17 27 18 28 26 29 19 30 25 31
REMARK SMILES IDX 20 32 21 33 22 34 23 35 24 36
REMARK H PARENT
REMARK Flexibility Score: inf
ROOT
ATOM      1  C   UNL     1       8.706   7.004  -2.953  1.00  0.00    -0.010 A 
ATOM      2  C   UNL     1       9.108   5.810  -2.332  1.00  0.00     0.010 A 
ATOM      3  C   UNL     1       8.380   5.270  -1.276  1.00  0.00     0.009 A 
ATOM      4  C   UNL     1       7.228   5.909  -0.811  1.00  0.00    -0.017 A 
ATOM      5  C   UNL     1       6.500   5.366   0.249  1.00  0.00     0.009 A 
ATOM      6  C   UNL     1       5.349   5.997   0.719  1.00  0.00     0.010 A 
ATOM      7  C   UNL     1       4.876   7.197   0.149  1.00  0.00    -0.009 A 
ATOM      8  C   UNL     1       3.703   7.861   0.607  1.00  0.00    -0.010 A 
ATOM      9  C   UNL     1       3.301   9.055  -0.011  1.00  0.00     0.010 A 
ATOM     10  C   UNL     1       4.031   9.596  -1.066  1.00  0.00     0.009 A 
ATOM     11  C   UNL     1       5.184   8.957  -1.532  1.00  0.00    -0.017 A 
ATOM     12  C   UNL     1       5.913   9.502  -2.590  1.00  0.00     0.009 A 
ATOM     13  C   UNL     1       7.065   8.871  -3.060  1.00  0.00     0.010 A 
ATOM     14  C   UNL     1       7.534   7.669  -2.493  1.00  0.00    -0.009 A 
ATOM     15  C   UNL     1       6.794   7.113  -1.415  1.00  0.00    -0.002 A 
ATOM     16  C   UNL     1       5.617   7.753  -0.929  1.00  0.00    -0.002 A 
ENDROOT
BRANCH   1  17
ATOM     17  C   UNL     1       9.526   7.516  -4.062  1.00  0.00    -0.018 A 
ATOM     18  C   UNL     1      11.112   8.487  -6.187  1.00  0.00     0.119 A 
ATOM     19  C   UNL     1       9.787   8.102  -6.404  1.00  0.00     0.047 A 
ATOM     20  C   UNL     1      11.647   8.377  -4.905  1.00  0.00     0.047 A 
ATOM     21  C   UNL     1       8.999   7.621  -5.355  1.00  0.00     0.012 A 
ATOM     22  C   UNL     1      10.859   7.895  -3.851  1.00  0.00     0.012 A 
BRANCH  18  23
ATOM     23  O   UNL     1      11.763   8.927  -7.304  1.00  0.00    -0.490 OA
BRANCH  23  24
ATOM     24  C   UNL     1      11.110   9.855  -8.170  1.00  0.00     0.257 C 
BRANCH  24  25
ATOM     25  C   UNL     1      11.108  11.222  -7.550  1.00  0.00     0.006 C 
ATOM     26  C   UNL     1      11.168  12.371  -8.238  1.00  0.00     0.007 C 
ENDBRANCH  24  25
ENDBRANCH  23  24
ENDBRANCH  18  23
ENDBRANCH   1  17
BRANCH   8  27
ATOM     27  C   UNL     1       2.882   7.344   1.714  1.00  0.00    -0.018 A 
ATOM     28  C   UNL     1       2.093   8.209   2.486  1.00  0.00     0.012 A 
ATOM     29  C   UNL     1       2.875   5.978   2.024  1.00  0.00     0.012 A 
ATOM     30  C   UNL     1       1.308   7.722   3.539  1.00  0.00     0.047 A 
ATOM     31  C   UNL     1       2.092   5.494   3.075  1.00  0.00     0.047 A 
ATOM     32  C   UNL     1       1.304   6.360   3.836  1.00  0.00     0.119 A 
BRANCH  32  33
ATOM     33  O   UNL     1       0.587   5.753   4.829  1.00  0.00    -0.490 OA
BRANCH  33  34
ATOM     34  C   UNL     1       0.025   4.476   4.538  1.00  0.00     0.257 C 
BRANCH  34  35
ATOM     35  C   UNL     1      -1.207   4.706   3.715  1.00  0.00     0.006 C 
ATOM     36  C   UNL     1      -2.265   3.884   3.673  1.00  0.00     0.007 C 
ENDBRANCH  34  35
ENDBRANCH  33  34
ENDBRANCH  32  33
ENDBRANCH   8  27
TORSDOF 8
REMARK SMILES C=CCOc1ccc(-c2ccc3ccc4c(-c5ccc(OCC=C)cc5)ccc5ccc2c3c54)cc1
REMARK SMILES IDX 9 1 10 2 11 3 12 4 13 5 14 6 15 7 16 8 27 9 28 10 29 11
REMARK SMILES IDX 30 12 31 13 32 14 33 15 34 16 8 17 5 18 6 19 36 20 7 21
REMARK SMILES IDX 35 22 4 23 3 24 2 25 1 26 17 27 18 28 26 29 19 30 25 31
REMARK SMILES IDX 20 32 21 33 22 34 23 35 24 36
REMARK H PARENT
REMARK Flexibility Score: inf
ROOT
ATOM      1  C   UNL     1       6.041   5.107  -4.577  1.00  0.00    -0.010 A 
ATOM      2  C   UNL     1       5.992   6.230  -5.419  1.00  0.00     0.010 A 
ATOM      3  C   UNL     1       4.978   7.176  -5.295  1.00  0.00     0.009 A 
ATOM      4  C   UNL     1       3.985   7.024  -4.324  1.00  0.00    -0.017 A 
ATOM      5  C   UNL     1       2.968   7.973  -4.202  1.00  0.00     0.009 A 
ATOM      6  C   UNL     1       1.972   7.829  -3.236  1.00  0.00     0.010 A 
ATOM      7  C   UNL     1       1.952   6.732  -2.351  1.00  0.00    -0.009 A 
ATOM      8  C   UNL     1       0.949   6.562  -1.354  1.00  0.00    -0.010 A 
ATOM      9  C   UNL     1       0.997   5.438  -0.514  1.00  0.00     0.010 A 
ATOM     10  C   UNL     1       2.010   4.492  -0.640  1.00  0.00     0.009 A 
ATOM     11  C   UNL     1       3.004   4.643  -1.611  1.00  0.00    -0.017 A 
ATOM     12  C   UNL     1       4.019   3.693  -1.735  1.00  0.00     0.009 A 
ATOM     13  C   UNL     1       5.015   3.836  -2.701  1.00  0.00     0.010 A 
ATOM     14  C   UNL     1       5.038   4.936  -3.583  1.00  0.00    -0.009 A 
ATOM     15  C   UNL     1       4.005   5.904  -3.460  1.00  0.00    -0.002 A 
ATOM     16  C   UNL     1       2.984   5.763  -2.474  1.00  0.00    -0.002 A 
ENDROOT
BRANCH   1  17
ATOM     17  C   UNL     1       7.141   4.149  -4.769  1.00  0.00    -0.018 A 
ATOM     18  C   UNL     1       9.264   2.323  -5.137  1.00  0.00     0.119 A 
ATOM     19  C   UNL     1       8.398   2.200  -4.047  1.00  0.00     0.047 A 
ATOM     20  C   UNL     1       9.073   3.369  -6.039  1.00  0.00     0.047 A 
ATOM     21  C   UNL     1       7.347   3.101  -3.862  1.00  0.00     0.012 A 
ATOM     22  C   UNL     1       8.019   4.273  -5.856  1.00  0.00     0.012 A 
BRANCH  18  23
ATOM     23  O   UNL     1      10.250   1.379  -5.185  1.00  0.00    -0.490 OA
BRANCH  23  24
ATOM     24  C   UNL     1      10.889   0.979  -3.973  1.00  0.00     0.257 C 
BRANCH  24  25
ATOM     25  C   UNL     1      10.508  -0.433  -3.634  1.00  0.00     0.006 C 
ATOM     26  C   UNL     1       9.737  -0.785  -2.597  1.00  0.00     0.007 C 
ENDBRANCH  24  25
ENDBRANCH  23  24
ENDBRANCH  18  23
ENDBRANCH   1  17
BRANCH   8  27
ATOM     27  C   UNL     1      -0.148   7.523  -1.162  1.00  0.00    -0.018 A 
ATOM     28  C   UNL     1      -1.453   7.216  -1.575  1.00  0.00     0.012 A 
ATOM     29  C   UNL     1       0.088   8.770  -0.567  1.00  0.00     0.012 A 
ATOM     30  C   UNL     1      -2.500   8.127  -1.392  1.00  0.00     0.047 A 
ATOM     31  C   UNL     1      -0.958   9.678  -0.386  1.00  0.00     0.047 A 
ATOM     32  C   UNL     1      -2.256   9.362  -0.794  1.00  0.00     0.119 A 
BRANCH  32  33
ATOM     33  O   UNL     1      -3.182  10.340  -0.554  1.00  0.00    -0.490 OA
BRANCH  33  34
ATOM     34  C   UNL     1      -2.930  11.625  -1.116  1.00  0.00     0.257 C 
BRANCH  34  35
ATOM     35  C   UNL     1      -3.069  12.631  -0.014  1.00  0.00     0.006 C 
ATOM     36  C   UNL     1      -2.366  13.769   0.078  1.00  0.00     0.007 C 
ENDBRANCH  34  35
ENDBRANCH  33  34
ENDBRANCH  32  33
ENDBRANCH   8  27
TORSDOF 8
ENDMDL
