MODEL 1
REMARK VINA RESULT:   -10.059      0.000      0.000
REMARK INTER + INTRA:         -21.777
REMARK INTER:                 -19.468
REMARK INTRA:                  -2.309
REMARK UNBOUND:                -2.309
REMARK SMILES C=CCOc1ccc(-c2ccc3ccc4c(-c5ccc(OCC=C)cc5)ccc5ccc2c3c54)cc1
REMARK SMILES IDX 9 1 10 2 11 3 12 4 13 5 14 6 15 7 16 8 27 9 28 10 29 11
REMARK SMILES IDX 30 12 31 13 32 14 33 15 34 16 8 17 5 18 6 19 36 20 7 21
REMARK SMILES IDX 35 22 4 23 3 24 2 25 1 26 17 27 18 28 26 29 19 30 25 31
REMARK SMILES IDX 20 32 21 33 22 34 23 35 24 36
REMARK H PARENT
REMARK Flexibility Score: inf
ROOT
ATOM      1  C   UNL     1      10.897   3.310  -1.912  1.00  0.00    -0.010 A 
ATOM      2  C   UNL     1      11.675   3.206  -3.077  1.00  0.00     0.010 A 
ATOM      3  C   UNL     1      11.591   4.163  -4.084  1.00  0.00     0.009 A 
ATOM      4  C   UNL     1      10.725   5.252  -3.954  1.00  0.00    -0.017 A 
ATOM      5  C   UNL     1      10.641   6.210  -4.966  1.00  0.00     0.009 A 
ATOM      6  C   UNL     1       9.780   7.300  -4.845  1.00  0.00     0.010 A 
ATOM      7  C   UNL     1       8.967   7.479  -3.707  1.00  0.00    -0.009 A 
ATOM      8  C   UNL     1       8.081   8.583  -3.556  1.00  0.00    -0.010 A 
ATOM      9  C   UNL     1       7.301   8.686  -2.393  1.00  0.00     0.010 A 
ATOM     10  C   UNL     1       7.384   7.728  -1.387  1.00  0.00     0.009 A 
ATOM     11  C   UNL     1       8.250   6.638  -1.516  1.00  0.00    -0.017 A 
ATOM     12  C   UNL     1       8.332   5.679  -0.506  1.00  0.00     0.009 A 
ATOM     13  C   UNL     1       9.193   4.588  -0.627  1.00  0.00     0.010 A 
ATOM     14  C   UNL     1      10.009   4.412  -1.763  1.00  0.00    -0.009 A 
ATOM     15  C   UNL     1       9.927   5.387  -2.794  1.00  0.00    -0.002 A 
ATOM     16  C   UNL     1       9.048   6.504  -2.676  1.00  0.00    -0.002 A 
ENDROOT
BRANCH   1  17
ATOM     17  C   UNL     1      11.037   2.260  -0.892  1.00  0.00    -0.018 A 
ATOM     18  C   UNL     1      11.300   0.253   1.078  1.00  0.00     0.119 A 
ATOM     19  C   UNL     1      10.692  -0.027  -0.148  1.00  0.00     0.047 A 
ATOM     20  C   UNL     1      11.768   1.543   1.323  1.00  0.00     0.047 A 
ATOM     21  C   UNL     1      10.561   0.963  -1.125  1.00  0.00     0.012 A 
ATOM     22  C   UNL     1      11.638   2.537   0.344  1.00  0.00     0.012 A 
BRANCH  18  23
ATOM     23  O   UNL     1      11.350  -0.806   1.939  1.00  0.00    -0.490 OA
BRANCH  23  24
ATOM     24  C   UNL     1      11.605  -0.564   3.323  1.00  0.00     0.257 C 
BRANCH  24  25
ATOM     25  C   UNL     1      10.309  -0.467   4.074  1.00  0.00     0.006 C 
ATOM     26  C   UNL     1      10.064   0.408   5.059  1.00  0.00     0.007 C 
ENDBRANCH  24  25
ENDBRANCH  23  24
ENDBRANCH  18  23
ENDBRANCH   1  17
BRANCH   8  27
ATOM     27  C   UNL     1       7.945   9.635  -4.576  1.00  0.00    -0.018 A 
ATOM     28  C   UNL     1       8.519  10.900  -4.384  1.00  0.00     0.012 A 
ATOM     29  C   UNL     1       7.234   9.396  -5.760  1.00  0.00     0.012 A 
ATOM     30  C   UNL     1       8.394  11.903  -5.353  1.00  0.00     0.047 A 
ATOM     31  C   UNL     1       7.111  10.399  -6.726  1.00  0.00     0.047 A 
ATOM     32  C   UNL     1       7.690  11.654  -6.530  1.00  0.00     0.119 A 
BRANCH  32  33
ATOM     33  O   UNL     1       7.493  12.538  -7.555  1.00  0.00    -0.490 OA
BRANCH  33  34
ATOM     34  C   UNL     1       8.424  13.611  -7.675  1.00  0.00     0.257 C 
BRANCH  34  35
ATOM     35  C   UNL     1       9.535  13.141  -8.566  1.00  0.00     0.006 C 
ATOM     36  C   UNL     1      10.703  12.643  -8.137  1.00  0.00     0.007 C 
ENDBRANCH  34  35
ENDBRANCH  33  34
ENDBRANCH  32  33
ENDBRANCH   8  27
TORSDOF 8
REMARK SMILES C=CCOc1ccc(-c2ccc3ccc4c(-c5ccc(OCC=C)cc5)ccc5ccc2c3c54)cc1
REMARK SMILES IDX 9 1 10 2 11 3 12 4 13 5 14 6 15 7 16 8 27 9 28 10 29 11
REMARK SMILES IDX 30 12 31 13 32 14 33 15 34 16 8 17 5 18 6 19 36 20 7 21
REMARK SMILES IDX 35 22 4 23 3 24 2 25 1 26 17 27 18 28 26 29 19 30 25 31
REMARK SMILES IDX 20 32 21 33 22 34 23 35 24 36
REMARK H PARENT
REMARK Flexibility Score: inf
ROOT
ATOM      1  C   UNL     1       2.153   7.248  -0.068  1.00  0.00    -0.010 A 
ATOM      2  C   UNL     1       2.346   6.210   0.859  1.00  0.00     0.010 A 
ATOM      3  C   UNL     1       3.230   5.169   0.595  1.00  0.00     0.009 A 
ATOM      4  C   UNL     1       3.948   5.136  -0.603  1.00  0.00    -0.017 A 
ATOM      5  C   UNL     1       4.833   4.089  -0.866  1.00  0.00     0.009 A 
ATOM      6  C   UNL     1       5.553   4.048  -2.060  1.00  0.00     0.010 A 
ATOM      7  C   UNL     1       5.418   5.052  -3.041  1.00  0.00    -0.009 A 
ATOM      8  C   UNL     1       6.142   5.037  -4.267  1.00  0.00    -0.010 A 
ATOM      9  C   UNL     1       5.948   6.072  -5.194  1.00  0.00     0.010 A 
ATOM     10  C   UNL     1       5.062   7.113  -4.931  1.00  0.00     0.009 A 
ATOM     11  C   UNL     1       4.344   7.147  -3.732  1.00  0.00    -0.017 A 
ATOM     12  C   UNL     1       3.456   8.192  -3.470  1.00  0.00     0.009 A 
ATOM     13  C   UNL     1       2.736   8.232  -2.277  1.00  0.00     0.010 A 
ATOM     14  C   UNL     1       2.875   7.231  -1.295  1.00  0.00    -0.009 A 
ATOM     15  C   UNL     1       3.777   6.166  -1.558  1.00  0.00    -0.002 A 
ATOM     16  C   UNL     1       4.515   6.118  -2.777  1.00  0.00    -0.002 A 
ENDROOT
BRANCH   1  17
ATOM     17  C   UNL     1       1.200   8.314   0.278  1.00  0.00    -0.018 A 
ATOM     18  C   UNL     1      -0.640  10.350   0.946  1.00  0.00     0.119 A 
ATOM     19  C   UNL     1       0.614  10.292   1.560  1.00  0.00     0.047 A 
ATOM     20  C   UNL     1      -0.977   9.380   0.003  1.00  0.00     0.047 A 
ATOM     21  C   UNL     1       1.527   9.287   1.232  1.00  0.00     0.012 A 
ATOM     22  C   UNL     1      -0.063   8.371  -0.328  1.00  0.00     0.012 A 
BRANCH  18  23
ATOM     23  O   UNL     1      -1.431  11.379   1.372  1.00  0.00    -0.490 OA
BRANCH  23  24
ATOM     24  C   UNL     1      -0.857  12.412   2.172  1.00  0.00     0.257 C 
BRANCH  24  25
ATOM     25  C   UNL     1      -0.757  13.681   1.377  1.00  0.00     0.006 C 
ATOM     26  C   UNL     1      -1.199  13.829   0.120  1.00  0.00     0.007 C 
ENDBRANCH  24  25
ENDBRANCH  23  24
ENDBRANCH  18  23
ENDBRANCH   1  17
BRANCH   8  27
ATOM     27  C   UNL     1       7.097   3.971  -4.609  1.00  0.00    -0.018 A 
ATOM     28  C   UNL     1       7.385   2.945  -3.698  1.00  0.00     0.012 A 
ATOM     29  C   UNL     1       7.746   3.962  -5.851  1.00  0.00     0.012 A 
ATOM     30  C   UNL     1       8.291   1.927  -4.020  1.00  0.00     0.047 A 
ATOM     31  C   UNL     1       8.650   2.946  -6.171  1.00  0.00     0.047 A 
ATOM     32  C   UNL     1       8.927   1.924  -5.261  1.00  0.00     0.119 A 
BRANCH  32  33
ATOM     33  O   UNL     1       9.828   0.995  -5.703  1.00  0.00    -0.490 OA
BRANCH  33  34
ATOM     34  C   UNL     1       9.511   0.306  -6.910  1.00  0.00     0.257 C 
BRANCH  34  35
ATOM     35  C   UNL     1       8.202  -0.392  -6.696  1.00  0.00     0.006 C 
ATOM     36  C   UNL     1       7.227  -0.490  -7.611  1.00  0.00     0.007 C 
ENDBRANCH  34  35
ENDBRANCH  33  34
ENDBRANCH  32  33
ENDBRANCH   8  27
TORSDOF 8
ENDMDL
MODEL 2
REMARK VINA RESULT:    -9.114      3.377      8.199
REMARK INTER + INTRA:         -19.949
REMARK INTER:                 -18.459
REMARK INTRA:                  -1.489
REMARK UNBOUND:                -2.309
REMARK SMILES C=CCOc1ccc(-c2ccc3ccc4c(-c5ccc(OCC=C)cc5)ccc5ccc2c3c54)cc1
REMARK SMILES IDX 9 1 10 2 11 3 12 4 13 5 14 6 15 7 16 8 27 9 28 10 29 11
REMARK SMILES IDX 30 12 31 13 32 14 33 15 34 16 8 17 5 18 6 19 36 20 7 21
REMARK SMILES IDX 35 22 4 23 3 24 2 25 1 26 17 27 18 28 26 29 19 30 25 31
REMARK SMILES IDX 20 32 21 33 22 34 23 35 24 36
REMARK H PARENT
REMARK Flexibility Score: inf
ROOT
ATOM      1  C   UNL     1       7.817   4.047  -3.876  1.00  0.00    -0.010 A 
ATOM      2  C   UNL     1       8.051   3.253  -2.741  1.00  0.00     0.010 A 
ATOM      3  C   UNL     1       7.101   3.150  -1.730  1.00  0.00     0.009 A 
ATOM      4  C   UNL     1       5.889   3.839  -1.825  1.00  0.00    -0.017 A 
ATOM      5  C   UNL     1       4.938   3.735  -0.808  1.00  0.00     0.009 A 
ATOM      6  C   UNL     1       3.726   4.419  -0.895  1.00  0.00     0.010 A 
ATOM      7  C   UNL     1       3.413   5.234  -2.002  1.00  0.00    -0.009 A 
ATOM      8  C   UNL     1       2.182   5.941  -2.117  1.00  0.00    -0.010 A 
ATOM      9  C   UNL     1       1.949   6.736  -3.250  1.00  0.00     0.010 A 
ATOM     10  C   UNL     1       2.900   6.841  -4.261  1.00  0.00     0.009 A 
ATOM     11  C   UNL     1       4.113   6.152  -4.166  1.00  0.00    -0.017 A 
ATOM     12  C   UNL     1       5.065   6.258  -5.182  1.00  0.00     0.009 A 
ATOM     13  C   UNL     1       6.278   5.574  -5.095  1.00  0.00     0.010 A 
ATOM     14  C   UNL     1       6.588   4.756  -3.990  1.00  0.00    -0.009 A 
ATOM     15  C   UNL     1       5.621   4.647  -2.955  1.00  0.00    -0.002 A 
ATOM     16  C   UNL     1       4.380   5.343  -3.037  1.00  0.00    -0.002 A 
ENDROOT
BRANCH   1  17
ATOM     17  C   UNL     1       8.868   4.109  -4.903  1.00  0.00    -0.018 A 
ATOM     18  C   UNL     1      10.894   4.216  -6.868  1.00  0.00     0.119 A 
ATOM     19  C   UNL     1       9.557   4.038  -7.231  1.00  0.00     0.047 A 
ATOM     20  C   UNL     1      11.219   4.331  -5.517  1.00  0.00     0.047 A 
ATOM     21  C   UNL     1       8.552   3.985  -6.262  1.00  0.00     0.012 A 
ATOM     22  C   UNL     1      10.213   4.278  -4.544  1.00  0.00     0.012 A 
BRANCH  18  23
ATOM     23  O   UNL     1      11.768   4.239  -7.918  1.00  0.00    -0.490 OA
BRANCH  23  24
ATOM     24  C   UNL     1      11.702   3.203  -8.898  1.00  0.00     0.257 C 
BRANCH  24  25
ATOM     25  C   UNL     1      11.768   1.860  -8.231  1.00  0.00     0.006 C 
ATOM     26  C   UNL     1      10.950   0.834  -8.503  1.00  0.00     0.007 C 
ENDBRANCH  24  25
ENDBRANCH  23  24
ENDBRANCH  18  23
ENDBRANCH   1  17
BRANCH   8  27
ATOM     27  C   UNL     1       1.131   5.874  -1.090  1.00  0.00    -0.018 A 
ATOM     28  C   UNL     1       0.955   4.717  -0.317  1.00  0.00     0.012 A 
ATOM     29  C   UNL     1       0.278   6.963  -0.866  1.00  0.00     0.012 A 
ATOM     30  C   UNL     1      -0.042   4.649   0.663  1.00  0.00     0.047 A 
ATOM     31  C   UNL     1      -0.717   6.893   0.113  1.00  0.00     0.047 A 
ATOM     32  C   UNL     1      -0.882   5.740   0.882  1.00  0.00     0.119 A 
BRANCH  32  33
ATOM     33  O   UNL     1      -1.891   5.810   1.803  1.00  0.00    -0.490 OA
BRANCH  33  34
ATOM     34  C   UNL     1      -1.775   6.800   2.821  1.00  0.00     0.257 C 
BRANCH  34  35
ATOM     35  C   UNL     1      -2.434   6.257   4.053  1.00  0.00     0.006 C 
ATOM     36  C   UNL     1      -2.807   6.992   5.110  1.00  0.00     0.007 C 
ENDBRANCH  34  35
ENDBRANCH  33  34
ENDBRANCH  32  33
ENDBRANCH   8  27
TORSDOF 8
REMARK SMILES C=CCOc1ccc(-c2ccc3ccc4c(-c5ccc(OCC=C)cc5)ccc5ccc2c3c54)cc1
REMARK SMILES IDX 9 1 10 2 11 3 12 4 13 5 14 6 15 7 16 8 27 9 28 10 29 11
REMARK SMILES IDX 30 12 31 13 32 14 33 15 34 16 8 17 5 18 6 19 36 20 7 21
REMARK SMILES IDX 35 22 4 23 3 24 2 25 1 26 17 27 18 28 26 29 19 30 25 31
REMARK SMILES IDX 20 32 21 33 22 34 23 35 24 36
REMARK H PARENT
REMARK Flexibility Score: inf
ROOT
ATOM      1  C   UNL     1       3.768   8.117   0.058  1.00  0.00    -0.010 A 
ATOM      2  C   UNL     1       3.102   8.976  -0.831  1.00  0.00     0.010 A 
ATOM      3  C   UNL     1       3.715   9.414  -2.001  1.00  0.00     0.009 A 
ATOM      4  C   UNL     1       5.012   9.003  -2.317  1.00  0.00    -0.017 A 
ATOM      5  C   UNL     1       5.625   9.444  -3.491  1.00  0.00     0.009 A 
ATOM      6  C   UNL     1       6.920   9.039  -3.813  1.00  0.00     0.010 A 
ATOM      7  C   UNL     1       7.656   8.175  -2.976  1.00  0.00    -0.009 A 
ATOM      8  C   UNL     1       8.978   7.744  -3.282  1.00  0.00    -0.010 A 
ATOM      9  C   UNL     1       9.646   6.887  -2.393  1.00  0.00     0.010 A 
ATOM     10  C   UNL     1       9.034   6.452  -1.222  1.00  0.00     0.009 A 
ATOM     11  C   UNL     1       7.735   6.862  -0.905  1.00  0.00    -0.017 A 
ATOM     12  C   UNL     1       7.123   6.423   0.270  1.00  0.00     0.009 A 
ATOM     13  C   UNL     1       5.828   6.829   0.593  1.00  0.00     0.010 A 
ATOM     14  C   UNL     1       5.091   7.688  -0.247  1.00  0.00    -0.009 A 
ATOM     15  C   UNL     1       5.712   8.137  -1.444  1.00  0.00    -0.002 A 
ATOM     16  C   UNL     1       7.036   7.727  -1.779  1.00  0.00    -0.002 A 
ENDROOT
BRANCH   1  17
ATOM     17  C   UNL     1       3.058   7.698   1.276  1.00  0.00    -0.018 A 
ATOM     18  C   UNL     1       1.681   6.899   3.608  1.00  0.00     0.119 A 
ATOM     19  C   UNL     1       2.502   6.001   2.922  1.00  0.00     0.047 A 
ATOM     20  C   UNL     1       1.542   8.198   3.121  1.00  0.00     0.047 A 
ATOM     21  C   UNL     1       3.185   6.393   1.768  1.00  0.00     0.012 A 
ATOM     22  C   UNL     1       2.226   8.593   1.964  1.00  0.00     0.012 A 
BRANCH  18  23
ATOM     23  O   UNL     1       1.069   6.376   4.712  1.00  0.00    -0.490 OA
BRANCH  23  24
ATOM     24  C   UNL     1       1.527   5.130   5.236  1.00  0.00     0.257 C 
BRANCH  24  25
ATOM     25  C   UNL     1       0.427   4.110   5.172  1.00  0.00     0.006 C 
ATOM     26  C   UNL     1       0.020   3.499   4.050  1.00  0.00     0.007 C 
ENDBRANCH  24  25
ENDBRANCH  23  24
ENDBRANCH  18  23
ENDBRANCH   1  17
BRANCH   8  27
ATOM     27  C   UNL     1       9.685   8.162  -4.503  1.00  0.00    -0.018 A 
ATOM     28  C   UNL     1       9.391   7.570  -5.740  1.00  0.00     0.012 A 
ATOM     29  C   UNL     1      10.671   9.156  -4.457  1.00  0.00     0.012 A 
ATOM     30  C   UNL     1      10.059   7.965  -6.906  1.00  0.00     0.047 A 
ATOM     31  C   UNL     1      11.337   9.549  -5.621  1.00  0.00     0.047 A 
ATOM     32  C   UNL     1      11.035   8.959  -6.849  1.00  0.00     0.119 A 
BRANCH  32  33
ATOM     33  O   UNL     1      11.759   9.439  -7.905  1.00  0.00    -0.490 OA
BRANCH  33  34
ATOM     34  C   UNL     1      11.049  10.168  -8.903  1.00  0.00     0.257 C 
BRANCH  34  35
ATOM     35  C   UNL     1      10.469  11.382  -8.242  1.00  0.00     0.006 C 
ATOM     36  C   UNL     1      11.142  12.516  -7.998  1.00  0.00     0.007 C 
ENDBRANCH  34  35
ENDBRANCH  33  34
ENDBRANCH  32  33
ENDBRANCH   8  27
TORSDOF 8
ENDMDL
MODEL 3
REMARK VINA RESULT:    -9.063      3.485      9.929
REMARK INTER + INTRA:         -19.849
REMARK INTER:                 -18.643
REMARK INTRA:                  -1.206
REMARK UNBOUND:                -2.309
REMARK SMILES C=CCOc1ccc(-c2ccc3ccc4c(-c5ccc(OCC=C)cc5)ccc5ccc2c3c54)cc1
REMARK SMILES IDX 9 1 10 2 11 3 12 4 13 5 14 6 15 7 16 8 27 9 28 10 29 11
REMARK SMILES IDX 30 12 31 13 32 14 33 15 34 16 8 17 5 18 6 19 36 20 7 21
REMARK SMILES IDX 35 22 4 23 3 24 2 25 1 26 17 27 18 28 26 29 19 30 25 31
REMARK SMILES IDX 20 32 21 33 22 34 23 35 24 36
REMARK H PARENT
REMARK Flexibility Score: inf
ROOT
ATOM      1  C   UNL     1       2.442   7.632  -2.124  1.00  0.00    -0.010 A 
ATOM      2  C   UNL     1       2.760   8.909  -1.633  1.00  0.00     0.010 A 
ATOM      3  C   UNL     1       3.879   9.596  -2.094  1.00  0.00     0.009 A 
ATOM      4  C   UNL     1       4.712   9.025  -3.061  1.00  0.00    -0.017 A 
ATOM      5  C   UNL     1       5.835   9.716  -3.520  1.00  0.00     0.009 A 
ATOM      6  C   UNL     1       6.671   9.153  -4.484  1.00  0.00     0.010 A 
ATOM      7  C   UNL     1       6.420   7.877  -5.030  1.00  0.00    -0.009 A 
ATOM      8  C   UNL     1       7.255   7.281  -6.016  1.00  0.00    -0.010 A 
ATOM      9  C   UNL     1       6.939   6.004  -6.505  1.00  0.00     0.010 A 
ATOM     10  C   UNL     1       5.821   5.316  -6.043  1.00  0.00     0.009 A 
ATOM     11  C   UNL     1       4.988   5.886  -5.076  1.00  0.00    -0.017 A 
ATOM     12  C   UNL     1       3.867   5.195  -4.614  1.00  0.00     0.009 A 
ATOM     13  C   UNL     1       3.030   5.757  -3.650  1.00  0.00     0.010 A 
ATOM     14  C   UNL     1       3.279   7.034  -3.109  1.00  0.00    -0.009 A 
ATOM     15  C   UNL     1       4.420   7.740  -3.576  1.00  0.00    -0.002 A 
ATOM     16  C   UNL     1       5.279   7.171  -4.561  1.00  0.00    -0.002 A 
ENDROOT
BRANCH   1  17
ATOM     17  C   UNL     1       1.245   6.965  -1.589  1.00  0.00    -0.018 A 
ATOM     18  C   UNL     1      -1.043   5.673  -0.555  1.00  0.00     0.119 A 
ATOM     19  C   UNL     1      -0.791   7.017  -0.266  1.00  0.00     0.047 A 
ATOM     20  C   UNL     1      -0.142   4.971  -1.354  1.00  0.00     0.047 A 
ATOM     21  C   UNL     1       0.340   7.659  -0.777  1.00  0.00     0.012 A 
ATOM     22  C   UNL     1       0.992   5.614  -1.867  1.00  0.00     0.012 A 
BRANCH  18  23
ATOM     23  O   UNL     1      -2.178   5.174   0.019  1.00  0.00    -0.490 OA
BRANCH  23  24
ATOM     24  C   UNL     1      -2.320   3.762   0.165  1.00  0.00     0.257 C 
BRANCH  24  25
ATOM     25  C   UNL     1      -2.146   3.374   1.605  1.00  0.00     0.006 C 
ATOM     26  C   UNL     1      -2.071   4.242   2.623  1.00  0.00     0.007 C 
ENDBRANCH  24  25
ENDBRANCH  23  24
ENDBRANCH  18  23
ENDBRANCH   1  17
BRANCH   8  27
ATOM     27  C   UNL     1       8.450   7.952  -6.553  1.00  0.00    -0.018 A 
ATOM     28  C   UNL     1       9.730   7.626  -6.080  1.00  0.00     0.012 A 
ATOM     29  C   UNL     1       8.335   8.934  -7.546  1.00  0.00     0.012 A 
ATOM     30  C   UNL     1      10.869   8.260  -6.589  1.00  0.00     0.047 A 
ATOM     31  C   UNL     1       9.473   9.566  -8.053  1.00  0.00     0.047 A 
ATOM     32  C   UNL     1      10.744   9.232  -7.581  1.00  0.00     0.119 A 
BRANCH  32  33
ATOM     33  O   UNL     1      11.769   9.925  -8.165  1.00  0.00    -0.490 OA
BRANCH  33  34
ATOM     34  C   UNL     1      11.435  11.144  -8.825  1.00  0.00     0.257 C 
BRANCH  34  35
ATOM     35  C   UNL     1      11.587  12.250  -7.824  1.00  0.00     0.006 C 
ATOM     36  C   UNL     1      11.707  13.550  -8.131  1.00  0.00     0.007 C 
ENDBRANCH  34  35
ENDBRANCH  33  34
ENDBRANCH  32  33
ENDBRANCH   8  27
TORSDOF 8
REMARK SMILES C=CCOc1ccc(-c2ccc3ccc4c(-c5ccc(OCC=C)cc5)ccc5ccc2c3c54)cc1
REMARK SMILES IDX 9 1 10 2 11 3 12 4 13 5 14 6 15 7 16 8 27 9 28 10 29 11
REMARK SMILES IDX 30 12 31 13 32 14 33 15 34 16 8 17 5 18 6 19 36 20 7 21
REMARK SMILES IDX 35 22 4 23 3 24 2 25 1 26 17 27 18 28 26 29 19 30 25 31
REMARK SMILES IDX 20 32 21 33 22 34 23 35 24 36
REMARK H PARENT
REMARK Flexibility Score: inf
ROOT
ATOM      1  C   UNL     1       8.819   5.838  -2.885  1.00  0.00    -0.010 A 
ATOM      2  C   UNL     1       9.298   7.097  -2.488  1.00  0.00     0.010 A 
ATOM      3  C   UNL     1       8.595   7.875  -1.573  1.00  0.00     0.009 A 
ATOM      4  C   UNL     1       7.394   7.415  -1.027  1.00  0.00    -0.017 A 
ATOM      5  C   UNL     1       6.691   8.198  -0.110  1.00  0.00     0.009 A 
ATOM      6  C   UNL     1       5.491   7.746   0.440  1.00  0.00     0.010 A 
ATOM      7  C   UNL     1       4.945   6.492   0.096  1.00  0.00    -0.009 A 
ATOM      8  C   UNL     1       3.724   6.006   0.643  1.00  0.00    -0.010 A 
ATOM      9  C   UNL     1       3.244   4.748   0.246  1.00  0.00     0.010 A 
ATOM     10  C   UNL     1       3.946   3.971  -0.672  1.00  0.00     0.009 A 
ATOM     11  C   UNL     1       5.147   4.431  -1.218  1.00  0.00    -0.017 A 
ATOM     12  C   UNL     1       5.849   3.649  -2.137  1.00  0.00     0.009 A 
ATOM     13  C   UNL     1       7.049   4.101  -2.687  1.00  0.00     0.010 A 
ATOM     14  C   UNL     1       7.597   5.352  -2.340  1.00  0.00    -0.009 A 
ATOM     15  C   UNL     1       6.884   6.150  -1.405  1.00  0.00    -0.002 A 
ATOM     16  C   UNL     1       5.657   5.695  -0.840  1.00  0.00    -0.002 A 
ENDROOT
BRANCH   1  17
ATOM     17  C   UNL     1       9.614   5.073  -3.858  1.00  0.00    -0.018 A 
ATOM     18  C   UNL     1      11.150   3.599  -5.714  1.00  0.00     0.119 A 
ATOM     19  C   UNL     1       9.765   3.429  -5.640  1.00  0.00     0.047 A 
ATOM     20  C   UNL     1      11.769   4.501  -4.849  1.00  0.00     0.047 A 
ATOM     21  C   UNL     1       9.002   4.157  -4.724  1.00  0.00     0.012 A 
ATOM     22  C   UNL     1      11.005   5.232  -3.930  1.00  0.00     0.012 A 
BRANCH  18  23
ATOM     23  O   UNL     1      11.766   2.815  -6.648  1.00  0.00    -0.490 OA
BRANCH  23  24
ATOM     24  C   UNL     1      11.333   2.882  -8.006  1.00  0.00     0.257 C 
BRANCH  24  25
ATOM     25  C   UNL     1      11.761   4.185  -8.618  1.00  0.00     0.006 C 
ATOM     26  C   UNL     1      10.973   5.261  -8.745  1.00  0.00     0.007 C 
ENDBRANCH  24  25
ENDBRANCH  23  24
ENDBRANCH  18  23
ENDBRANCH   1  17
BRANCH   8  27
ATOM     27  C   UNL     1       2.933   6.771   1.620  1.00  0.00    -0.018 A 
ATOM     28  C   UNL     1       2.911   8.173   1.585  1.00  0.00     0.012 A 
ATOM     29  C   UNL     1       2.188   6.116   2.609  1.00  0.00     0.012 A 
ATOM     30  C   UNL     1       2.158   8.906   2.511  1.00  0.00     0.047 A 
ATOM     31  C   UNL     1       1.437   6.849   3.532  1.00  0.00     0.047 A 
ATOM     32  C   UNL     1       1.416   8.244   3.488  1.00  0.00     0.119 A 
BRANCH  32  33
ATOM     33  O   UNL     1       0.639   8.833   4.448  1.00  0.00    -0.490 OA
BRANCH  33  34
ATOM     34  C   UNL     1      -0.597   8.197   4.763  1.00  0.00     0.257 C 
BRANCH  34  35
ATOM     35  C   UNL     1      -1.662   8.855   3.938  1.00  0.00     0.006 C 
ATOM     36  C   UNL     1      -2.660   8.208   3.319  1.00  0.00     0.007 C 
ENDBRANCH  34  35
ENDBRANCH  33  34
ENDBRANCH  32  33
ENDBRANCH   8  27
TORSDOF 8
ENDMDL
MODEL 4
REMARK VINA RESULT:    -9.048      3.349      7.812
REMARK INTER + INTRA:         -19.821
REMARK INTER:                 -18.519
REMARK INTRA:                  -1.302
REMARK UNBOUND:                -2.309
REMARK SMILES C=CCOc1ccc(-c2ccc3ccc4c(-c5ccc(OCC=C)cc5)ccc5ccc2c3c54)cc1
REMARK SMILES IDX 9 1 10 2 11 3 12 4 13 5 14 6 15 7 16 8 27 9 28 10 29 11
REMARK SMILES IDX 30 12 31 13 32 14 33 15 34 16 8 17 5 18 6 19 36 20 7 21
REMARK SMILES IDX 35 22 4 23 3 24 2 25 1 26 17 27 18 28 26 29 19 30 25 31
REMARK SMILES IDX 20 32 21 33 22 34 23 35 24 36
REMARK H PARENT
REMARK Flexibility Score: inf
ROOT
ATOM      1  C   UNL     1       8.749   5.805  -2.634  1.00  0.00    -0.010 A 
ATOM      2  C   UNL     1       9.247   7.023  -2.143  1.00  0.00     0.010 A 
ATOM      3  C   UNL     1       8.528   7.770  -1.214  1.00  0.00     0.009 A 
ATOM      4  C   UNL     1       7.290   7.318  -0.749  1.00  0.00    -0.017 A 
ATOM      5  C   UNL     1       6.570   8.070   0.181  1.00  0.00     0.009 A 
ATOM      6  C   UNL     1       5.333   7.626   0.650  1.00  0.00     0.010 A 
ATOM      7  C   UNL     1       4.765   6.413   0.209  1.00  0.00    -0.009 A 
ATOM      8  C   UNL     1       3.507   5.936   0.673  1.00  0.00    -0.010 A 
ATOM      9  C   UNL     1       3.008   4.720   0.181  1.00  0.00     0.010 A 
ATOM     10  C   UNL     1       3.726   3.974  -0.749  1.00  0.00     0.009 A 
ATOM     11  C   UNL     1       4.964   4.426  -1.215  1.00  0.00    -0.017 A 
ATOM     12  C   UNL     1       5.683   3.676  -2.147  1.00  0.00     0.009 A 
ATOM     13  C   UNL     1       6.920   4.119  -2.616  1.00  0.00     0.010 A 
ATOM     14  C   UNL     1       7.489   5.329  -2.172  1.00  0.00    -0.009 A 
ATOM     15  C   UNL     1       6.759   6.095  -1.223  1.00  0.00    -0.002 A 
ATOM     16  C   UNL     1       5.495   5.648  -0.740  1.00  0.00    -0.002 A 
ENDROOT
BRANCH   1  17
ATOM     17  C   UNL     1       9.563   5.072  -3.615  1.00  0.00    -0.018 A 
ATOM     18  C   UNL     1      11.135   3.658  -5.487  1.00  0.00     0.119 A 
ATOM     19  C   UNL     1       9.741   3.587  -5.529  1.00  0.00     0.047 A 
ATOM     20  C   UNL     1      11.745   4.430  -4.499  1.00  0.00     0.047 A 
ATOM     21  C   UNL     1       8.960   4.286  -4.605  1.00  0.00     0.012 A 
ATOM     22  C   UNL     1      10.964   5.132  -3.572  1.00  0.00     0.012 A 
BRANCH  18  23
ATOM     23  O   UNL     1      11.769   2.916  -6.444  1.00  0.00    -0.490 OA
BRANCH  23  24
ATOM     24  C   UNL     1      11.566   3.238  -7.819  1.00  0.00     0.257 C 
BRANCH  24  25
ATOM     25  C   UNL     1      11.711   4.718  -8.027  1.00  0.00     0.006 C 
ATOM     26  C   UNL     1      10.853   5.477  -8.724  1.00  0.00     0.007 C 
ENDBRANCH  24  25
ENDBRANCH  23  24
ENDBRANCH  18  23
ENDBRANCH   1  17
BRANCH   8  27
ATOM     27  C   UNL     1       2.695   6.669   1.658  1.00  0.00    -0.018 A 
ATOM     28  C   UNL     1       1.793   5.992   2.491  1.00  0.00     0.012 A 
ATOM     29  C   UNL     1       2.803   8.061   1.781  1.00  0.00     0.012 A 
ATOM     30  C   UNL     1       1.021   6.685   3.432  1.00  0.00     0.047 A 
ATOM     31  C   UNL     1       2.031   8.751   2.720  1.00  0.00     0.047 A 
ATOM     32  C   UNL     1       1.139   8.069   3.550  1.00  0.00     0.119 A 
BRANCH  32  33
ATOM     33  O   UNL     1       0.451   8.866   4.423  1.00  0.00    -0.490 OA
BRANCH  33  34
ATOM     34  C   UNL     1      -0.971   8.766   4.410  1.00  0.00     0.257 C 
BRANCH  34  35
ATOM     35  C   UNL     1      -1.501  10.010   3.763  1.00  0.00     0.006 C 
ATOM     36  C   UNL     1      -1.616  10.196   2.440  1.00  0.00     0.007 C 
ENDBRANCH  34  35
ENDBRANCH  33  34
ENDBRANCH  32  33
ENDBRANCH   8  27
TORSDOF 8
REMARK SMILES C=CCOc1ccc(-c2ccc3ccc4c(-c5ccc(OCC=C)cc5)ccc5ccc2c3c54)cc1
REMARK SMILES IDX 9 1 10 2 11 3 12 4 13 5 14 6 15 7 16 8 27 9 28 10 29 11
REMARK SMILES IDX 30 12 31 13 32 14 33 15 34 16 8 17 5 18 6 19 36 20 7 21
REMARK SMILES IDX 35 22 4 23 3 24 2 25 1 26 17 27 18 28 26 29 19 30 25 31
REMARK SMILES IDX 20 32 21 33 22 34 23 35 24 36
REMARK H PARENT
REMARK Flexibility Score: inf
ROOT
ATOM      1  C   UNL     1       2.262   7.694  -1.984  1.00  0.00    -0.010 A 
ATOM      2  C   UNL     1       2.621   8.941  -1.447  1.00  0.00     0.010 A 
ATOM      3  C   UNL     1       3.773   9.599  -1.869  1.00  0.00     0.009 A 
ATOM      4  C   UNL     1       4.598   9.027  -2.841  1.00  0.00    -0.017 A 
ATOM      5  C   UNL     1       5.754   9.687  -3.262  1.00  0.00     0.009 A 
ATOM      6  C   UNL     1       6.583   9.124  -4.231  1.00  0.00     0.010 A 
ATOM      7  C   UNL     1       6.292   7.877  -4.821  1.00  0.00    -0.009 A 
ATOM      8  C   UNL     1       7.119   7.280  -5.814  1.00  0.00    -0.010 A 
ATOM      9  C   UNL     1       6.762   6.033  -6.349  1.00  0.00     0.010 A 
ATOM     10  C   UNL     1       5.611   5.374  -5.926  1.00  0.00     0.009 A 
ATOM     11  C   UNL     1       4.785   5.946  -4.953  1.00  0.00    -0.017 A 
ATOM     12  C   UNL     1       3.631   5.284  -4.531  1.00  0.00     0.009 A 
ATOM     13  C   UNL     1       2.802   5.847  -3.561  1.00  0.00     0.010 A 
ATOM     14  C   UNL     1       3.091   7.096  -2.975  1.00  0.00    -0.009 A 
ATOM     15  C   UNL     1       4.265   7.772  -3.403  1.00  0.00    -0.002 A 
ATOM     16  C   UNL     1       5.118   7.201  -4.393  1.00  0.00    -0.002 A 
ENDROOT
BRANCH   1  17
ATOM     17  C   UNL     1       1.032   7.058  -1.488  1.00  0.00    -0.018 A 
ATOM     18  C   UNL     1      -1.338   5.850  -0.540  1.00  0.00     0.119 A 
ATOM     19  C   UNL     1      -0.528   5.196  -1.472  1.00  0.00     0.047 A 
ATOM     20  C   UNL     1      -0.967   7.116  -0.090  1.00  0.00     0.047 A 
ATOM     21  C   UNL     1       0.646   5.790  -1.942  1.00  0.00     0.012 A 
ATOM     22  C   UNL     1       0.210   7.713  -0.560  1.00  0.00     0.012 A 
BRANCH  18  23
ATOM     23  O   UNL     1      -2.457   5.155  -0.178  1.00  0.00    -0.490 OA
BRANCH  23  24
ATOM     24  C   UNL     1      -2.469   3.735  -0.316  1.00  0.00     0.257 C 
BRANCH  24  25
ATOM     25  C   UNL     1      -2.795   3.093   1.002  1.00  0.00     0.006 C 
ATOM     26  C   UNL     1      -2.372   3.542   2.192  1.00  0.00     0.007 C 
ENDBRANCH  24  25
ENDBRANCH  23  24
ENDBRANCH  18  23
ENDBRANCH   1  17
BRANCH   8  27
ATOM     27  C   UNL     1       8.347   7.920  -6.311  1.00  0.00    -0.018 A 
ATOM     28  C   UNL     1       9.576   7.715  -5.667  1.00  0.00     0.012 A 
ATOM     29  C   UNL     1       8.315   8.754  -7.437  1.00  0.00     0.012 A 
ATOM     30  C   UNL     1      10.747   8.320  -6.138  1.00  0.00     0.047 A 
ATOM     31  C   UNL     1       9.485   9.357  -7.906  1.00  0.00     0.047 A 
ATOM     32  C   UNL     1      10.705   9.144  -7.262  1.00  0.00     0.119 A 
BRANCH  32  33
ATOM     33  O   UNL     1      11.769   9.793  -7.827  1.00  0.00    -0.490 OA
BRANCH  33  34
ATOM     34  C   UNL     1      11.518  11.072  -8.402  1.00  0.00     0.257 C 
BRANCH  34  35
ATOM     35  C   UNL     1      11.757  12.097  -7.334  1.00  0.00     0.006 C 
ATOM     36  C   UNL     1      10.806  12.859  -6.776  1.00  0.00     0.007 C 
ENDBRANCH  34  35
ENDBRANCH  33  34
ENDBRANCH  32  33
ENDBRANCH   8  27
TORSDOF 8
ENDMDL
MODEL 5
REMARK VINA RESULT:    -8.966      3.006      7.143
REMARK INTER + INTRA:         -19.661
REMARK INTER:                 -17.222
REMARK INTRA:                  -2.439
REMARK UNBOUND:                -2.309
REMARK SMILES C=CCOc1ccc(-c2ccc3ccc4c(-c5ccc(OCC=C)cc5)ccc5ccc2c3c54)cc1
REMARK SMILES IDX 9 1 10 2 11 3 12 4 13 5 14 6 15 7 16 8 27 9 28 10 29 11
REMARK SMILES IDX 30 12 31 13 32 14 33 15 34 16 8 17 5 18 6 19 36 20 7 21
REMARK SMILES IDX 35 22 4 23 3 24 2 25 1 26 17 27 18 28 26 29 19 30 25 31
REMARK SMILES IDX 20 32 21 33 22 34 23 35 24 36
REMARK H PARENT
REMARK Flexibility Score: inf
ROOT
ATOM      1  C   UNL     1       7.370   7.940  -5.010  1.00  0.00    -0.010 A 
ATOM      2  C   UNL     1       7.416   9.288  -4.616  1.00  0.00     0.010 A 
ATOM      3  C   UNL     1       6.388   9.851  -3.866  1.00  0.00     0.009 A 
ATOM      4  C   UNL     1       5.284   9.082  -3.487  1.00  0.00    -0.017 A 
ATOM      5  C   UNL     1       4.254   9.650  -2.736  1.00  0.00     0.009 A 
ATOM      6  C   UNL     1       3.149   8.890  -2.355  1.00  0.00     0.010 A 
ATOM      7  C   UNL     1       3.028   7.530  -2.707  1.00  0.00    -0.009 A 
ATOM      8  C   UNL     1       1.913   6.730  -2.329  1.00  0.00    -0.010 A 
ATOM      9  C   UNL     1       1.865   5.384  -2.724  1.00  0.00     0.010 A 
ATOM     10  C   UNL     1       2.892   4.821  -3.476  1.00  0.00     0.009 A 
ATOM     11  C   UNL     1       3.996   5.590  -3.855  1.00  0.00    -0.017 A 
ATOM     12  C   UNL     1       5.025   5.023  -4.609  1.00  0.00     0.009 A 
ATOM     13  C   UNL     1       6.130   5.783  -4.991  1.00  0.00     0.010 A 
ATOM     14  C   UNL     1       6.253   7.141  -4.634  1.00  0.00    -0.009 A 
ATOM     15  C   UNL     1       5.207   7.721  -3.867  1.00  0.00    -0.002 A 
ATOM     16  C   UNL     1       4.074   6.950  -3.474  1.00  0.00    -0.002 A 
ENDROOT
BRANCH   1  17
ATOM     17  C   UNL     1       8.491   7.415  -5.803  1.00  0.00    -0.018 A 
ATOM     18  C   UNL     1      10.641   6.416  -7.339  1.00  0.00     0.119 A 
ATOM     19  C   UNL     1      10.847   6.870  -6.034  1.00  0.00     0.047 A 
ATOM     20  C   UNL     1       9.357   6.471  -7.880  1.00  0.00     0.047 A 
ATOM     21  C   UNL     1       9.786   7.364  -5.271  1.00  0.00     0.012 A 
ATOM     22  C   UNL     1       8.292   6.966  -7.117  1.00  0.00     0.012 A 
BRANCH  18  23
ATOM     23  O   UNL     1      11.769   5.970  -7.967  1.00  0.00    -0.490 OA
BRANCH  23  24
ATOM     24  C   UNL     1      11.664   4.899  -8.905  1.00  0.00     0.257 C 
BRANCH  24  25
ATOM     25  C   UNL     1      11.443   3.602  -8.181  1.00  0.00     0.006 C 
ATOM     26  C   UNL     1      10.466   2.729  -8.464  1.00  0.00     0.007 C 
ENDBRANCH  24  25
ENDBRANCH  23  24
ENDBRANCH  18  23
ENDBRANCH   1  17
BRANCH   8  27
ATOM     27  C   UNL     1       0.794   7.257  -1.532  1.00  0.00    -0.018 A 
ATOM     28  C   UNL     1       0.174   6.466  -0.553  1.00  0.00     0.012 A 
ATOM     29  C   UNL     1       0.319   8.560  -1.737  1.00  0.00     0.012 A 
ATOM     30  C   UNL     1      -0.889   6.964   0.210  1.00  0.00     0.047 A 
ATOM     31  C   UNL     1      -0.743   9.055  -0.975  1.00  0.00     0.047 A 
ATOM     32  C   UNL     1      -1.351   8.263   0.002  1.00  0.00     0.119 A 
BRANCH  32  33
ATOM     33  O   UNL     1      -2.374   8.873   0.673  1.00  0.00    -0.490 OA
BRANCH  33  34
ATOM     34  C   UNL     1      -2.082   9.398   1.965  1.00  0.00     0.257 C 
BRANCH  34  35
ATOM     35  C   UNL     1      -2.385  10.866   1.932  1.00  0.00     0.006 C 
ATOM     36  C   UNL     1      -1.662  11.783   1.275  1.00  0.00     0.007 C 
ENDBRANCH  34  35
ENDBRANCH  33  34
ENDBRANCH  32  33
ENDBRANCH   8  27
TORSDOF 8
REMARK SMILES C=CCOc1ccc(-c2ccc3ccc4c(-c5ccc(OCC=C)cc5)ccc5ccc2c3c54)cc1
REMARK SMILES IDX 9 1 10 2 11 3 12 4 13 5 14 6 15 7 16 8 27 9 28 10 29 11
REMARK SMILES IDX 30 12 31 13 32 14 33 15 34 16 8 17 5 18 6 19 36 20 7 21
REMARK SMILES IDX 35 22 4 23 3 24 2 25 1 26 17 27 18 28 26 29 19 30 25 31
REMARK SMILES IDX 20 32 21 33 22 34 23 35 24 36
REMARK H PARENT
REMARK Flexibility Score: inf
ROOT
ATOM      1  C   UNL     1       3.544   6.730   0.878  1.00  0.00    -0.010 A 
ATOM      2  C   UNL     1       3.003   5.440   0.752  1.00  0.00     0.010 A 
ATOM      3  C   UNL     1       3.685   4.440   0.065  1.00  0.00     0.009 A 
ATOM      4  C   UNL     1       4.929   4.701  -0.515  1.00  0.00    -0.017 A 
ATOM      5  C   UNL     1       5.610   3.697  -1.204  1.00  0.00     0.009 A 
ATOM      6  C   UNL     1       6.852   3.950  -1.786  1.00  0.00     0.010 A 
ATOM      7  C   UNL     1       7.466   5.216  -1.701  1.00  0.00    -0.009 A 
ATOM      8  C   UNL     1       8.733   5.501  -2.283  1.00  0.00    -0.010 A 
ATOM      9  C   UNL     1       9.275   6.790  -2.159  1.00  0.00     0.010 A 
ATOM     10  C   UNL     1       8.592   7.791  -1.474  1.00  0.00     0.009 A 
ATOM     11  C   UNL     1       7.347   7.530  -0.894  1.00  0.00    -0.017 A 
ATOM     12  C   UNL     1       6.664   8.535  -0.207  1.00  0.00     0.009 A 
ATOM     13  C   UNL     1       5.421   8.283   0.374  1.00  0.00     0.010 A 
ATOM     14  C   UNL     1       4.811   7.015   0.294  1.00  0.00    -0.009 A 
ATOM     15  C   UNL     1       5.503   5.990  -0.405  1.00  0.00    -0.002 A 
ATOM     16  C   UNL     1       6.773   6.241  -1.003  1.00  0.00    -0.002 A 
ENDROOT
BRANCH   1  17
ATOM     17  C   UNL     1       2.766   7.736   1.616  1.00  0.00    -0.018 A 
ATOM     18  C   UNL     1       1.282   9.668   3.045  1.00  0.00     0.119 A 
ATOM     19  C   UNL     1       1.661   9.897   1.720  1.00  0.00     0.047 A 
ATOM     20  C   UNL     1       1.655   8.473   3.660  1.00  0.00     0.047 A 
ATOM     21  C   UNL     1       2.395   8.943   1.010  1.00  0.00     0.012 A 
ATOM     22  C   UNL     1       2.390   7.515   2.949  1.00  0.00     0.012 A 
BRANCH  18  23
ATOM     23  O   UNL     1       0.578  10.689   3.617  1.00  0.00    -0.490 OA
BRANCH  23  24
ATOM     24  C   UNL     1       1.269  11.641   4.427  1.00  0.00     0.257 C 
BRANCH  24  25
ATOM     25  C   UNL     1       1.227  12.994   3.777  1.00  0.00     0.006 C 
ATOM     26  C   UNL     1       1.860  14.081   4.240  1.00  0.00     0.007 C 
ENDBRANCH  24  25
ENDBRANCH  23  24
ENDBRANCH  18  23
ENDBRANCH   1  17
BRANCH   8  27
ATOM     27  C   UNL     1       9.513   4.491  -3.018  1.00  0.00    -0.018 A 
ATOM     28  C   UNL     1      10.717   3.995  -2.497  1.00  0.00     0.012 A 
ATOM     29  C   UNL     1       9.071   4.007  -4.257  1.00  0.00     0.012 A 
ATOM     30  C   UNL     1      11.460   3.033  -3.191  1.00  0.00     0.047 A 
ATOM     31  C   UNL     1       9.815   3.047  -4.948  1.00  0.00     0.047 A 
ATOM     32  C   UNL     1      11.010   2.554  -4.420  1.00  0.00     0.119 A 
BRANCH  32  33
ATOM     33  O   UNL     1      11.633   1.618  -5.199  1.00  0.00    -0.490 OA
BRANCH  33  34
ATOM     34  C   UNL     1      10.893   0.443  -5.519  1.00  0.00     0.257 C 
BRANCH  34  35
ATOM     35  C   UNL     1      10.790  -0.376  -4.267  1.00  0.00     0.006 C 
ATOM     36  C   UNL     1       9.645  -0.669  -3.636  1.00  0.00     0.007 C 
ENDBRANCH  34  35
ENDBRANCH  33  34
ENDBRANCH  32  33
ENDBRANCH   8  27
TORSDOF 8
ENDMDL
MODEL 6
REMARK VINA RESULT:    -8.954      3.439     10.572
REMARK INTER + INTRA:         -19.638
REMARK INTER:                 -18.146
REMARK INTRA:                  -1.492
REMARK UNBOUND:                -2.309
REMARK SMILES C=CCOc1ccc(-c2ccc3ccc4c(-c5ccc(OCC=C)cc5)ccc5ccc2c3c54)cc1
REMARK SMILES IDX 9 1 10 2 11 3 12 4 13 5 14 6 15 7 16 8 27 9 28 10 29 11
REMARK SMILES IDX 30 12 31 13 32 14 33 15 34 16 8 17 5 18 6 19 36 20 7 21
REMARK SMILES IDX 35 22 4 23 3 24 2 25 1 26 17 27 18 28 26 29 19 30 25 31
REMARK SMILES IDX 20 32 21 33 22 34 23 35 24 36
REMARK H PARENT
REMARK Flexibility Score: inf
ROOT
ATOM      1  C   UNL     1       9.049   7.736  -3.261  1.00  0.00    -0.010 A 
ATOM      2  C   UNL     1       9.704   6.863  -2.377  1.00  0.00     0.010 A 
ATOM      3  C   UNL     1       9.083   6.423  -1.212  1.00  0.00     0.009 A 
ATOM      4  C   UNL     1       7.788   6.844  -0.897  1.00  0.00    -0.017 A 
ATOM      5  C   UNL     1       7.168   6.403   0.273  1.00  0.00     0.009 A 
ATOM      6  C   UNL     1       5.876   6.818   0.594  1.00  0.00     0.010 A 
ATOM      7  C   UNL     1       5.150   7.692  -0.241  1.00  0.00    -0.009 A 
ATOM      8  C   UNL     1       3.830   8.130   0.061  1.00  0.00    -0.010 A 
ATOM      9  C   UNL     1       3.175   9.004  -0.820  1.00  0.00     0.010 A 
ATOM     10  C   UNL     1       3.797   9.446  -1.984  1.00  0.00     0.009 A 
ATOM     11  C   UNL     1       5.092   9.025  -2.300  1.00  0.00    -0.017 A 
ATOM     12  C   UNL     1       5.714   9.469  -3.468  1.00  0.00     0.009 A 
ATOM     13  C   UNL     1       7.006   9.053  -3.790  1.00  0.00     0.010 A 
ATOM     14  C   UNL     1       7.729   8.176  -2.957  1.00  0.00    -0.009 A 
ATOM     15  C   UNL     1       7.100   7.724  -1.766  1.00  0.00    -0.002 A 
ATOM     16  C   UNL     1       5.780   8.145  -1.431  1.00  0.00    -0.002 A 
ENDROOT
BRANCH   1  17
ATOM     17  C   UNL     1       9.768   8.160  -4.471  1.00  0.00    -0.018 A 
ATOM     18  C   UNL     1      11.163   8.968  -6.790  1.00  0.00     0.119 A 
ATOM     19  C   UNL     1       9.994   8.209  -6.889  1.00  0.00     0.047 A 
ATOM     20  C   UNL     1      11.641   9.315  -5.527  1.00  0.00     0.047 A 
ATOM     21  C   UNL     1       9.301   7.809  -5.744  1.00  0.00     0.012 A 
ATOM     22  C   UNL     1      10.947   8.914  -4.378  1.00  0.00     0.012 A 
BRANCH  18  23
ATOM     23  O   UNL     1      11.739   9.279  -7.989  1.00  0.00    -0.490 OA
BRANCH  23  24
ATOM     24  C   UNL     1      10.927   9.821  -9.030  1.00  0.00     0.257 C 
BRANCH  24  25
ATOM     25  C   UNL     1      10.694  11.284  -8.790  1.00  0.00     0.006 C 
ATOM     26  C   UNL     1       9.488  11.869  -8.765  1.00  0.00     0.007 C 
ENDBRANCH  24  25
ENDBRANCH  23  24
ENDBRANCH  18  23
ENDBRANCH   1  17
BRANCH   8  27
ATOM     27  C   UNL     1       3.110   7.701   1.272  1.00  0.00    -0.018 A 
ATOM     28  C   UNL     1       3.123   6.358   1.676  1.00  0.00     0.012 A 
ATOM     29  C   UNL     1       2.392   8.624   2.044  1.00  0.00     0.012 A 
ATOM     30  C   UNL     1       2.441   5.945   2.827  1.00  0.00     0.047 A 
ATOM     31  C   UNL     1       1.713   8.211   3.192  1.00  0.00     0.047 A 
ATOM     32  C   UNL     1       1.735   6.873   3.592  1.00  0.00     0.119 A 
BRANCH  32  33
ATOM     33  O   UNL     1       1.031   6.608   4.734  1.00  0.00    -0.490 OA
BRANCH  33  34
ATOM     34  C   UNL     1       0.276   7.679   5.295  1.00  0.00     0.257 C 
BRANCH  34  35
ATOM     35  C   UNL     1      -1.146   7.503   4.855  1.00  0.00     0.006 C 
ATOM     36  C   UNL     1      -1.836   8.389   4.122  1.00  0.00     0.007 C 
ENDBRANCH  34  35
ENDBRANCH  33  34
ENDBRANCH  32  33
ENDBRANCH   8  27
TORSDOF 8
REMARK SMILES C=CCOc1ccc(-c2ccc3ccc4c(-c5ccc(OCC=C)cc5)ccc5ccc2c3c54)cc1
REMARK SMILES IDX 9 1 10 2 11 3 12 4 13 5 14 6 15 7 16 8 27 9 28 10 29 11
REMARK SMILES IDX 30 12 31 13 32 14 33 15 34 16 8 17 5 18 6 19 36 20 7 21
REMARK SMILES IDX 35 22 4 23 3 24 2 25 1 26 17 27 18 28 26 29 19 30 25 31
REMARK SMILES IDX 20 32 21 33 22 34 23 35 24 36
REMARK H PARENT
REMARK Flexibility Score: inf
ROOT
ATOM      1  C   UNL     1       7.743   4.234  -4.013  1.00  0.00    -0.010 A 
ATOM      2  C   UNL     1       8.011   3.412  -2.906  1.00  0.00     0.010 A 
ATOM      3  C   UNL     1       7.082   3.264  -1.881  1.00  0.00     0.009 A 
ATOM      4  C   UNL     1       5.856   3.933  -1.934  1.00  0.00    -0.017 A 
ATOM      5  C   UNL     1       4.927   3.784  -0.904  1.00  0.00     0.009 A 
ATOM      6  C   UNL     1       3.702   4.449  -0.948  1.00  0.00     0.010 A 
ATOM      7  C   UNL     1       3.354   5.290  -2.026  1.00  0.00    -0.009 A 
ATOM      8  C   UNL     1       2.110   5.978  -2.098  1.00  0.00    -0.010 A 
ATOM      9  C   UNL     1       1.842   6.801  -3.203  1.00  0.00     0.010 A 
ATOM     10  C   UNL     1       2.772   6.952  -4.227  1.00  0.00     0.009 A 
ATOM     11  C   UNL     1       3.999   6.282  -4.175  1.00  0.00    -0.017 A 
ATOM     12  C   UNL     1       4.929   6.433  -5.204  1.00  0.00     0.009 A 
ATOM     13  C   UNL     1       6.155   5.769  -5.159  1.00  0.00     0.010 A 
ATOM     14  C   UNL     1       6.500   4.924  -4.085  1.00  0.00    -0.009 A 
ATOM     15  C   UNL     1       5.554   4.769  -3.035  1.00  0.00    -0.002 A 
ATOM     16  C   UNL     1       4.300   5.446  -3.074  1.00  0.00    -0.002 A 
ENDROOT
BRANCH   1  17
ATOM     17  C   UNL     1       8.773   4.344  -5.057  1.00  0.00    -0.018 A 
ATOM     18  C   UNL     1      10.759   4.542  -7.055  1.00  0.00     0.119 A 
ATOM     19  C   UNL     1       9.407   4.464  -7.399  1.00  0.00     0.047 A 
ATOM     20  C   UNL     1      11.118   4.510  -5.709  1.00  0.00     0.047 A 
ATOM     21  C   UNL     1       8.422   4.367  -6.413  1.00  0.00     0.012 A 
ATOM     22  C   UNL     1      10.132   4.413  -4.719  1.00  0.00     0.012 A 
BRANCH  18  23
ATOM     23  O   UNL     1      11.610   4.623  -8.121  1.00  0.00    -0.490 OA
BRANCH  23  24
ATOM     24  C   UNL     1      11.769   3.488  -8.971  1.00  0.00     0.257 C 
BRANCH  24  25
ATOM     25  C   UNL     1      11.495   2.228  -8.202  1.00  0.00     0.006 C 
ATOM     26  C   UNL     1      10.779   1.194  -8.664  1.00  0.00     0.007 C 
ENDBRANCH  24  25
ENDBRANCH  23  24
ENDBRANCH  18  23
ENDBRANCH   1  17
BRANCH   8  27
ATOM     27  C   UNL     1       1.079   5.863  -1.054  1.00  0.00    -0.018 A 
ATOM     28  C   UNL     1       0.385   6.996  -0.603  1.00  0.00     0.012 A 
ATOM     29  C   UNL     1       0.772   4.621  -0.484  1.00  0.00     0.012 A 
ATOM     30  C   UNL     1      -0.598   6.891   0.388  1.00  0.00     0.047 A 
ATOM     31  C   UNL     1      -0.209   4.518   0.505  1.00  0.00     0.047 A 
ATOM     32  C   UNL     1      -0.900   5.649   0.945  1.00  0.00     0.119 A 
BRANCH  32  33
ATOM     33  O   UNL     1      -1.834   5.405   1.914  1.00  0.00    -0.490 OA
BRANCH  33  34
ATOM     34  C   UNL     1      -1.848   4.101   2.489  1.00  0.00     0.257 C 
BRANCH  34  35
ATOM     35  C   UNL     1      -1.917   4.267   3.977  1.00  0.00     0.006 C 
ATOM     36  C   UNL     1      -1.056   3.725   4.849  1.00  0.00     0.007 C 
ENDBRANCH  34  35
ENDBRANCH  33  34
ENDBRANCH  32  33
ENDBRANCH   8  27
TORSDOF 8
ENDMDL
MODEL 7
REMARK VINA RESULT:    -8.850      3.403      5.976
REMARK INTER + INTRA:         -19.438
REMARK INTER:                 -18.485
REMARK INTRA:                  -0.953
REMARK UNBOUND:                -2.309
REMARK SMILES C=CCOc1ccc(-c2ccc3ccc4c(-c5ccc(OCC=C)cc5)ccc5ccc2c3c54)cc1
REMARK SMILES IDX 9 1 10 2 11 3 12 4 13 5 14 6 15 7 16 8 27 9 28 10 29 11
REMARK SMILES IDX 30 12 31 13 32 14 33 15 34 16 8 17 5 18 6 19 36 20 7 21
REMARK SMILES IDX 35 22 4 23 3 24 2 25 1 26 17 27 18 28 26 29 19 30 25 31
REMARK SMILES IDX 20 32 21 33 22 34 23 35 24 36
REMARK H PARENT
REMARK Flexibility Score: inf
ROOT
ATOM      1  C   UNL     1       3.731   8.089   0.039  1.00  0.00    -0.010 A 
ATOM      2  C   UNL     1       3.051   8.929  -0.858  1.00  0.00     0.010 A 
ATOM      3  C   UNL     1       3.655   9.362  -2.035  1.00  0.00     0.009 A 
ATOM      4  C   UNL     1       4.957   8.965  -2.349  1.00  0.00    -0.017 A 
ATOM      5  C   UNL     1       5.561   9.402  -3.529  1.00  0.00     0.009 A 
ATOM      6  C   UNL     1       6.861   9.011  -3.850  1.00  0.00     0.010 A 
ATOM      7  C   UNL     1       7.611   8.168  -3.005  1.00  0.00    -0.009 A 
ATOM      8  C   UNL     1       8.938   7.752  -3.309  1.00  0.00    -0.010 A 
ATOM      9  C   UNL     1       9.620   6.914  -2.412  1.00  0.00     0.010 A 
ATOM     10  C   UNL     1       9.017   6.483  -1.234  1.00  0.00     0.009 A 
ATOM     11  C   UNL     1       7.713   6.879  -0.920  1.00  0.00    -0.017 A 
ATOM     12  C   UNL     1       7.110   6.446   0.262  1.00  0.00     0.009 A 
ATOM     13  C   UNL     1       5.810   6.836   0.583  1.00  0.00     0.010 A 
ATOM     14  C   UNL     1       5.059   7.675  -0.264  1.00  0.00    -0.009 A 
ATOM     15  C   UNL     1       5.671   8.119  -1.467  1.00  0.00    -0.002 A 
ATOM     16  C   UNL     1       7.000   7.724  -1.801  1.00  0.00    -0.002 A 
ENDROOT
BRANCH   1  17
ATOM     17  C   UNL     1       3.030   7.674   1.264  1.00  0.00    -0.018 A 
ATOM     18  C   UNL     1       1.698   6.871   3.621  1.00  0.00     0.119 A 
ATOM     19  C   UNL     1       1.645   8.199   3.189  1.00  0.00     0.047 A 
ATOM     20  C   UNL     1       2.428   5.945   2.876  1.00  0.00     0.047 A 
ATOM     21  C   UNL     1       2.303   8.599   2.023  1.00  0.00     0.012 A 
ATOM     22  C   UNL     1       3.088   6.345   1.707  1.00  0.00     0.012 A 
BRANCH  18  23
ATOM     23  O   UNL     1       1.019   6.626   4.780  1.00  0.00    -0.490 OA
BRANCH  23  24
ATOM     24  C   UNL     1       1.064   5.317   5.349  1.00  0.00     0.257 C 
BRANCH  24  25
ATOM     25  C   UNL     1      -0.302   4.696   5.315  1.00  0.00     0.006 C 
ATOM     26  C   UNL     1      -0.589   3.520   4.740  1.00  0.00     0.007 C 
ENDBRANCH  24  25
ENDBRANCH  23  24
ENDBRANCH  18  23
ENDBRANCH   1  17
BRANCH   8  27
ATOM     27  C   UNL     1       9.636   8.165  -4.537  1.00  0.00    -0.018 A 
ATOM     28  C   UNL     1      10.759   9.003  -4.477  1.00  0.00     0.012 A 
ATOM     29  C   UNL     1       9.190   7.735  -5.794  1.00  0.00     0.012 A 
ATOM     30  C   UNL     1      11.428   9.397  -5.642  1.00  0.00     0.047 A 
ATOM     31  C   UNL     1       9.859   8.129  -6.956  1.00  0.00     0.047 A 
ATOM     32  C   UNL     1      10.980   8.958  -6.888  1.00  0.00     0.119 A 
BRANCH  32  33
ATOM     33  O   UNL     1      11.537   9.264  -8.099  1.00  0.00    -0.490 OA
BRANCH  33  34
ATOM     34  C   UNL     1      10.880  10.255  -8.884  1.00  0.00     0.257 C 
BRANCH  34  35
ATOM     35  C   UNL     1      10.081  11.111  -7.948  1.00  0.00     0.006 C 
ATOM     36  C   UNL     1       8.902  11.676  -8.245  1.00  0.00     0.007 C 
ENDBRANCH  34  35
ENDBRANCH  33  34
ENDBRANCH  32  33
ENDBRANCH   8  27
TORSDOF 8
REMARK SMILES C=CCOc1ccc(-c2ccc3ccc4c(-c5ccc(OCC=C)cc5)ccc5ccc2c3c54)cc1
REMARK SMILES IDX 9 1 10 2 11 3 12 4 13 5 14 6 15 7 16 8 27 9 28 10 29 11
REMARK SMILES IDX 30 12 31 13 32 14 33 15 34 16 8 17 5 18 6 19 36 20 7 21
REMARK SMILES IDX 35 22 4 23 3 24 2 25 1 26 17 27 18 28 26 29 19 30 25 31
REMARK SMILES IDX 20 32 21 33 22 34 23 35 24 36
REMARK H PARENT
REMARK Flexibility Score: inf
ROOT
ATOM      1  C   UNL     1       2.158   5.830  -2.141  1.00  0.00    -0.010 A 
ATOM      2  C   UNL     1       1.879   6.611  -3.275  1.00  0.00     0.010 A 
ATOM      3  C   UNL     1       2.811   6.746  -4.300  1.00  0.00     0.009 A 
ATOM      4  C   UNL     1       4.049   6.104  -4.220  1.00  0.00    -0.017 A 
ATOM      5  C   UNL     1       4.983   6.243  -5.248  1.00  0.00     0.009 A 
ATOM      6  C   UNL     1       6.221   5.605  -5.176  1.00  0.00     0.010 A 
ATOM      7  C   UNL     1       6.578   4.802  -4.074  1.00  0.00    -0.009 A 
ATOM      8  C   UNL     1       7.833   4.138  -3.976  1.00  0.00    -0.010 A 
ATOM      9  C   UNL     1       8.114   3.359  -2.842  1.00  0.00     0.010 A 
ATOM     10  C   UNL     1       7.183   3.225  -1.816  1.00  0.00     0.009 A 
ATOM     11  C   UNL     1       5.944   3.868  -1.896  1.00  0.00    -0.017 A 
ATOM     12  C   UNL     1       5.011   3.731  -0.866  1.00  0.00     0.009 A 
ATOM     13  C   UNL     1       3.773   4.369  -0.938  1.00  0.00     0.010 A 
ATOM     14  C   UNL     1       3.415   5.168  -2.042  1.00  0.00    -0.009 A 
ATOM     15  C   UNL     1       4.362   5.310  -3.091  1.00  0.00    -0.002 A 
ATOM     16  C   UNL     1       5.630   4.661  -3.024  1.00  0.00    -0.002 A 
ENDROOT
BRANCH   1  17
ATOM     17  C   UNL     1       1.126   5.735  -1.098  1.00  0.00    -0.018 A 
ATOM     18  C   UNL     1      -0.844   5.545   0.917  1.00  0.00     0.119 A 
ATOM     19  C   UNL     1      -0.646   6.742   0.223  1.00  0.00     0.047 A 
ATOM     20  C   UNL     1      -0.047   4.444   0.609  1.00  0.00     0.047 A 
ATOM     21  C   UNL     1       0.327   6.839  -0.775  1.00  0.00     0.012 A 
ATOM     22  C   UNL     1       0.929   4.539  -0.391  1.00  0.00     0.012 A 
BRANCH  18  23
ATOM     23  O   UNL     1      -1.821   5.599   1.870  1.00  0.00    -0.490 OA
BRANCH  23  24
ATOM     24  C   UNL     1      -2.541   6.817   2.059  1.00  0.00     0.257 C 
BRANCH  24  25
ATOM     25  C   UNL     1      -2.064   7.507   3.304  1.00  0.00     0.006 C 
ATOM     26  C   UNL     1      -2.629   7.375   4.512  1.00  0.00     0.007 C 
ENDBRANCH  24  25
ENDBRANCH  23  24
ENDBRANCH  18  23
ENDBRANCH   1  17
BRANCH   8  27
ATOM     27  C   UNL     1       8.863   4.232  -5.023  1.00  0.00    -0.018 A 
ATOM     28  C   UNL     1      10.213   4.412  -4.688  1.00  0.00     0.012 A 
ATOM     29  C   UNL     1       8.516   4.148  -6.378  1.00  0.00     0.012 A 
ATOM     30  C   UNL     1      11.196   4.500  -5.681  1.00  0.00     0.047 A 
ATOM     31  C   UNL     1       9.499   4.235  -7.367  1.00  0.00     0.047 A 
ATOM     32  C   UNL     1      10.842   4.410  -7.026  1.00  0.00     0.119 A 
BRANCH  32  33
ATOM     33  O   UNL     1      11.696   4.477  -8.093  1.00  0.00    -0.490 OA
BRANCH  33  34
ATOM     34  C   UNL     1      11.667   3.393  -9.018  1.00  0.00     0.257 C 
BRANCH  34  35
ATOM     35  C   UNL     1      11.769   2.125  -8.225  1.00  0.00     0.006 C 
ATOM     36  C   UNL     1      11.277   0.939  -8.611  1.00  0.00     0.007 C 
ENDBRANCH  34  35
ENDBRANCH  33  34
ENDBRANCH  32  33
ENDBRANCH   8  27
TORSDOF 8
ENDMDL
MODEL 8
REMARK VINA RESULT:    -8.775      3.314      9.773
REMARK INTER + INTRA:         -19.293
REMARK INTER:                 -18.112
REMARK INTRA:                  -1.180
REMARK UNBOUND:                -2.309
REMARK SMILES C=CCOc1ccc(-c2ccc3ccc4c(-c5ccc(OCC=C)cc5)ccc5ccc2c3c54)cc1
REMARK SMILES IDX 9 1 10 2 11 3 12 4 13 5 14 6 15 7 16 8 27 9 28 10 29 11
REMARK SMILES IDX 30 12 31 13 32 14 33 15 34 16 8 17 5 18 6 19 36 20 7 21
REMARK SMILES IDX 35 22 4 23 3 24 2 25 1 26 17 27 18 28 26 29 19 30 25 31
REMARK SMILES IDX 20 32 21 33 22 34 23 35 24 36
REMARK H PARENT
REMARK Flexibility Score: inf
ROOT
ATOM      1  C   UNL     1       3.508   7.671   0.697  1.00  0.00    -0.010 A 
ATOM      2  C   UNL     1       3.104   8.909   0.170  1.00  0.00     0.010 A 
ATOM      3  C   UNL     1       3.857   9.553  -0.806  1.00  0.00     0.009 A 
ATOM      4  C   UNL     1       5.037   8.976  -1.285  1.00  0.00    -0.017 A 
ATOM      5  C   UNL     1       5.792   9.625  -2.264  1.00  0.00     0.009 A 
ATOM      6  C   UNL     1       6.970   9.057  -2.747  1.00  0.00     0.010 A 
ATOM      7  C   UNL     1       7.443   7.816  -2.273  1.00  0.00    -0.009 A 
ATOM      8  C   UNL     1       8.640   7.212  -2.750  1.00  0.00    -0.010 A 
ATOM      9  C   UNL     1       9.046   5.976  -2.223  1.00  0.00     0.010 A 
ATOM     10  C   UNL     1       8.293   5.333  -1.245  1.00  0.00     0.009 A 
ATOM     11  C   UNL     1       7.113   5.909  -0.765  1.00  0.00    -0.017 A 
ATOM     12  C   UNL     1       6.360   5.262   0.215  1.00  0.00     0.009 A 
ATOM     13  C   UNL     1       5.181   5.830   0.699  1.00  0.00     0.010 A 
ATOM     14  C   UNL     1       4.707   7.068   0.221  1.00  0.00    -0.009 A 
ATOM     15  C   UNL     1       5.472   7.730  -0.776  1.00  0.00    -0.002 A 
ATOM     16  C   UNL     1       6.678   7.155  -1.275  1.00  0.00    -0.002 A 
ENDROOT
BRANCH   1  17
ATOM     17  C   UNL     1       2.662   7.050   1.728  1.00  0.00    -0.018 A 
ATOM     18  C   UNL     1       1.050   5.847   3.710  1.00  0.00     0.119 A 
ATOM     19  C   UNL     1       1.371   7.205   3.779  1.00  0.00     0.047 A 
ATOM     20  C   UNL     1       1.545   5.087   2.651  1.00  0.00     0.047 A 
ATOM     21  C   UNL     1       2.168   7.804   2.800  1.00  0.00     0.012 A 
ATOM     22  C   UNL     1       2.344   5.686   1.668  1.00  0.00     0.012 A 
BRANCH  18  23
ATOM     23  O   UNL     1       0.273   5.397   4.739  1.00  0.00    -0.490 OA
BRANCH  23  24
ATOM     24  C   UNL     1      -1.137   5.614   4.692  1.00  0.00     0.257 C 
BRANCH  24  25
ATOM     25  C   UNL     1      -1.747   4.793   3.593  1.00  0.00     0.006 C 
ATOM     26  C   UNL     1      -2.428   3.654   3.782  1.00  0.00     0.007 C 
ENDBRANCH  24  25
ENDBRANCH  23  24
ENDBRANCH  18  23
ENDBRANCH   1  17
BRANCH   8  27
ATOM     27  C   UNL     1       9.483   7.833  -3.785  1.00  0.00    -0.018 A 
ATOM     28  C   UNL     1      10.864   7.595  -3.824  1.00  0.00     0.012 A 
ATOM     29  C   UNL     1       8.924   8.681  -4.751  1.00  0.00     0.012 A 
ATOM     30  C   UNL     1      11.670   8.181  -4.808  1.00  0.00     0.047 A 
ATOM     31  C   UNL     1       9.729   9.265  -5.732  1.00  0.00     0.047 A 
ATOM     32  C   UNL     1      11.103   9.018  -5.768  1.00  0.00     0.119 A 
BRANCH  32  33
ATOM     33  O   UNL     1      11.769   9.652  -6.781  1.00  0.00    -0.490 OA
BRANCH  33  34
ATOM     34  C   UNL     1      11.338   9.379  -8.112  1.00  0.00     0.257 C 
BRANCH  34  35
ATOM     35  C   UNL     1      11.316   7.889  -8.278  1.00  0.00     0.006 C 
ATOM     36  C   UNL     1      10.386   7.209  -8.963  1.00  0.00     0.007 C 
ENDBRANCH  34  35
ENDBRANCH  33  34
ENDBRANCH  32  33
ENDBRANCH   8  27
TORSDOF 8
REMARK SMILES C=CCOc1ccc(-c2ccc3ccc4c(-c5ccc(OCC=C)cc5)ccc5ccc2c3c54)cc1
REMARK SMILES IDX 9 1 10 2 11 3 12 4 13 5 14 6 15 7 16 8 27 9 28 10 29 11
REMARK SMILES IDX 30 12 31 13 32 14 33 15 34 16 8 17 5 18 6 19 36 20 7 21
REMARK SMILES IDX 35 22 4 23 3 24 2 25 1 26 17 27 18 28 26 29 19 30 25 31
REMARK SMILES IDX 20 32 21 33 22 34 23 35 24 36
REMARK H PARENT
REMARK Flexibility Score: inf
ROOT
ATOM      1  C   UNL     1       7.281   5.746  -6.040  1.00  0.00    -0.010 A 
ATOM      2  C   UNL     1       6.980   6.989  -6.620  1.00  0.00     0.010 A 
ATOM      3  C   UNL     1       5.870   7.722  -6.209  1.00  0.00     0.009 A 
ATOM      4  C   UNL     1       5.030   7.231  -5.206  1.00  0.00    -0.017 A 
ATOM      5  C   UNL     1       3.916   7.967  -4.798  1.00  0.00     0.009 A 
ATOM      6  C   UNL     1       3.073   7.485  -3.797  1.00  0.00     0.010 A 
ATOM      7  C   UNL     1       3.307   6.248  -3.163  1.00  0.00    -0.009 A 
ATOM      8  C   UNL     1       2.464   5.733  -2.138  1.00  0.00    -0.010 A 
ATOM      9  C   UNL     1       2.764   4.490  -1.559  1.00  0.00     0.010 A 
ATOM     10  C   UNL     1       3.872   3.757  -1.971  1.00  0.00     0.009 A 
ATOM     11  C   UNL     1       4.713   4.246  -2.975  1.00  0.00    -0.017 A 
ATOM     12  C   UNL     1       5.825   3.509  -3.385  1.00  0.00     0.009 A 
ATOM     13  C   UNL     1       6.669   3.991  -4.386  1.00  0.00     0.010 A 
ATOM     14  C   UNL     1       6.437   5.230  -5.016  1.00  0.00    -0.009 A 
ATOM     15  C   UNL     1       5.305   5.983  -4.601  1.00  0.00    -0.002 A 
ATOM     16  C   UNL     1       4.438   5.495  -3.579  1.00  0.00    -0.002 A 
ENDROOT
BRANCH   1  17
ATOM     17  C   UNL     1       8.470   5.028  -6.526  1.00  0.00    -0.018 A 
ATOM     18  C   UNL     1      10.753   3.643  -7.443  1.00  0.00     0.119 A 
ATOM     19  C   UNL     1       9.517   3.475  -8.071  1.00  0.00     0.047 A 
ATOM     20  C   UNL     1      10.845   4.499  -6.346  1.00  0.00     0.047 A 
ATOM     21  C   UNL     1       8.386   4.159  -7.621  1.00  0.00     0.012 A 
ATOM     22  C   UNL     1       9.711   5.186  -5.893  1.00  0.00     0.012 A 
BRANCH  18  23
ATOM     23  O   UNL     1      11.768   2.905  -7.984  1.00  0.00    -0.490 OA
BRANCH  23  24
ATOM     24  C   UNL     1      11.451   1.741  -8.747  1.00  0.00     0.257 C 
BRANCH  24  25
ATOM     25  C   UNL     1      11.507   0.523  -7.872  1.00  0.00     0.006 C 
ATOM     26  C   UNL     1      10.435  -0.091  -7.351  1.00  0.00     0.007 C 
ENDBRANCH  24  25
ENDBRANCH  23  24
ENDBRANCH  18  23
ENDBRANCH   1  17
BRANCH   8  27
ATOM     27  C   UNL     1       1.278   6.456  -1.650  1.00  0.00    -0.018 A 
ATOM     28  C   UNL     1       1.018   7.770  -2.065  1.00  0.00     0.012 A 
ATOM     29  C   UNL     1       0.386   5.848  -0.757  1.00  0.00     0.012 A 
ATOM     30  C   UNL     1      -0.110   8.461  -1.605  1.00  0.00     0.047 A 
ATOM     31  C   UNL     1      -0.739   6.539  -0.300  1.00  0.00     0.047 A 
ATOM     32  C   UNL     1      -0.995   7.845  -0.721  1.00  0.00     0.119 A 
BRANCH  32  33
ATOM     33  O   UNL     1      -2.130   8.400  -0.198  1.00  0.00    -0.490 OA
BRANCH  33  34
ATOM     34  C   UNL     1      -2.095   9.794   0.097  1.00  0.00     0.257 C 
BRANCH  34  35
ATOM     35  C   UNL     1      -1.061  10.000   1.163  1.00  0.00     0.006 C 
ATOM     36  C   UNL     1      -1.158   9.550   2.422  1.00  0.00     0.007 C 
ENDBRANCH  34  35
ENDBRANCH  33  34
ENDBRANCH  32  33
ENDBRANCH   8  27
TORSDOF 8
ENDMDL
MODEL 9
REMARK VINA RESULT:    -8.688      3.036     10.532
REMARK INTER + INTRA:         -19.124
REMARK INTER:                 -16.930
REMARK INTRA:                  -2.195
REMARK UNBOUND:                -2.309
REMARK SMILES C=CCOc1ccc(-c2ccc3ccc4c(-c5ccc(OCC=C)cc5)ccc5ccc2c3c54)cc1
REMARK SMILES IDX 9 1 10 2 11 3 12 4 13 5 14 6 15 7 16 8 27 9 28 10 29 11
REMARK SMILES IDX 30 12 31 13 32 14 33 15 34 16 8 17 5 18 6 19 36 20 7 21
REMARK SMILES IDX 35 22 4 23 3 24 2 25 1 26 17 27 18 28 26 29 19 30 25 31
REMARK SMILES IDX 20 32 21 33 22 34 23 35 24 36
REMARK H PARENT
REMARK Flexibility Score: inf
ROOT
ATOM      1  C   UNL     1       3.523   6.491   0.921  1.00  0.00    -0.010 A 
ATOM      2  C   UNL     1       2.913   5.255   0.651  1.00  0.00     0.010 A 
ATOM      3  C   UNL     1       3.565   4.282  -0.101  1.00  0.00     0.009 A 
ATOM      4  C   UNL     1       4.847   4.518  -0.604  1.00  0.00    -0.017 A 
ATOM      5  C   UNL     1       5.498   3.541  -1.359  1.00  0.00     0.009 A 
ATOM      6  C   UNL     1       6.778   3.768  -1.865  1.00  0.00     0.010 A 
ATOM      7  C   UNL     1       7.460   4.981  -1.636  1.00  0.00    -0.009 A 
ATOM      8  C   UNL     1       8.767   5.238  -2.139  1.00  0.00    -0.010 A 
ATOM      9  C   UNL     1       9.377   6.474  -1.871  1.00  0.00     0.010 A 
ATOM     10  C   UNL     1       8.724   7.448  -1.121  1.00  0.00     0.009 A 
ATOM     11  C   UNL     1       7.441   7.212  -0.617  1.00  0.00    -0.017 A 
ATOM     12  C   UNL     1       6.788   8.190   0.135  1.00  0.00     0.009 A 
ATOM     13  C   UNL     1       5.508   7.963   0.641  1.00  0.00     0.010 A 
ATOM     14  C   UNL     1       4.829   6.749   0.417  1.00  0.00    -0.009 A 
ATOM     15  C   UNL     1       5.490   5.752  -0.350  1.00  0.00    -0.002 A 
ATOM     16  C   UNL     1       6.798   5.978  -0.870  1.00  0.00    -0.002 A 
ENDROOT
BRANCH   1  17
ATOM     17  C   UNL     1       2.772   7.471   1.721  1.00  0.00    -0.018 A 
ATOM     18  C   UNL     1       1.320   9.355   3.243  1.00  0.00     0.119 A 
ATOM     19  C   UNL     1       1.636   8.101   3.773  1.00  0.00     0.047 A 
ATOM     20  C   UNL     1       1.724   9.663   1.945  1.00  0.00     0.047 A 
ATOM     21  C   UNL     1       2.354   7.167   3.022  1.00  0.00     0.012 A 
ATOM     22  C   UNL     1       2.445   8.728   1.191  1.00  0.00     0.012 A 
BRANCH  18  23
ATOM     23  O   UNL     1       0.607  10.160   4.084  1.00  0.00    -0.490 OA
BRANCH  23  24
ATOM     24  C   UNL     1       1.230  11.324   4.628  1.00  0.00     0.257 C 
BRANCH  24  25
ATOM     25  C   UNL     1       1.076  12.478   3.680  1.00  0.00     0.006 C 
ATOM     26  C   UNL     1       1.951  13.486   3.559  1.00  0.00     0.007 C 
ENDBRANCH  24  25
ENDBRANCH  23  24
ENDBRANCH  18  23
ENDBRANCH   1  17
BRANCH   8  27
ATOM     27  C   UNL     1       9.518   4.254  -2.935  1.00  0.00    -0.018 A 
ATOM     28  C   UNL     1       9.072   3.871  -4.208  1.00  0.00     0.012 A 
ATOM     29  C   UNL     1      10.692   3.675  -2.436  1.00  0.00     0.012 A 
ATOM     30  C   UNL     1       9.784   2.936  -4.970  1.00  0.00     0.047 A 
ATOM     31  C   UNL     1      11.401   2.743  -3.198  1.00  0.00     0.047 A 
ATOM     32  C   UNL     1      10.954   2.370  -4.467  1.00  0.00     0.119 A 
BRANCH  32  33
ATOM     33  O   UNL     1      11.744   1.452  -5.103  1.00  0.00    -0.490 OA
BRANCH  33  34
ATOM     34  C   UNL     1      11.529   0.079  -4.785  1.00  0.00     0.257 C 
BRANCH  34  35
ATOM     35  C   UNL     1      10.616  -0.485  -5.831  1.00  0.00     0.006 C 
ATOM     36  C   UNL     1      10.783  -0.340  -7.153  1.00  0.00     0.007 C 
ENDBRANCH  34  35
ENDBRANCH  33  34
ENDBRANCH  32  33
ENDBRANCH   8  27
TORSDOF 8
REMARK SMILES C=CCOc1ccc(-c2ccc3ccc4c(-c5ccc(OCC=C)cc5)ccc5ccc2c3c54)cc1
REMARK SMILES IDX 9 1 10 2 11 3 12 4 13 5 14 6 15 7 16 8 27 9 28 10 29 11
REMARK SMILES IDX 30 12 31 13 32 14 33 15 34 16 8 17 5 18 6 19 36 20 7 21
REMARK SMILES IDX 35 22 4 23 3 24 2 25 1 26 17 27 18 28 26 29 19 30 25 31
REMARK SMILES IDX 20 32 21 33 22 34 23 35 24 36
REMARK H PARENT
REMARK Flexibility Score: inf
ROOT
ATOM      1  C   UNL     1       7.570   7.945  -4.633  1.00  0.00    -0.010 A 
ATOM      2  C   UNL     1       7.694   9.241  -4.106  1.00  0.00     0.010 A 
ATOM      3  C   UNL     1       6.677   9.804  -3.341  1.00  0.00     0.009 A 
ATOM      4  C   UNL     1       5.506   9.087  -3.082  1.00  0.00    -0.017 A 
ATOM      5  C   UNL     1       4.486   9.655  -2.317  1.00  0.00     0.009 A 
ATOM      6  C   UNL     1       3.315   8.945  -2.053  1.00  0.00     0.010 A 
ATOM      7  C   UNL     1       3.114   7.639  -2.544  1.00  0.00    -0.009 A 
ATOM      8  C   UNL     1       1.929   6.892  -2.288  1.00  0.00    -0.010 A 
ATOM      9  C   UNL     1       1.804   5.597  -2.817  1.00  0.00     0.010 A 
ATOM     10  C   UNL     1       2.820   5.035  -3.583  1.00  0.00     0.009 A 
ATOM     11  C   UNL     1       3.992   5.752  -3.843  1.00  0.00    -0.017 A 
ATOM     12  C   UNL     1       5.011   5.185  -4.611  1.00  0.00     0.009 A 
ATOM     13  C   UNL     1       6.182   5.895  -4.874  1.00  0.00     0.010 A 
ATOM     14  C   UNL     1       6.385   7.199  -4.380  1.00  0.00    -0.009 A 
ATOM     15  C   UNL     1       5.349   7.779  -3.598  1.00  0.00    -0.002 A 
ATOM     16  C   UNL     1       4.149   7.059  -3.326  1.00  0.00    -0.002 A 
ENDROOT
BRANCH   1  17
ATOM     17  C   UNL     1       8.686   7.416  -5.433  1.00  0.00    -0.018 A 
ATOM     18  C   UNL     1      10.830   6.389  -6.957  1.00  0.00     0.119 A 
ATOM     19  C   UNL     1       9.559   6.533  -7.520  1.00  0.00     0.047 A 
ATOM     20  C   UNL     1      11.025   6.751  -5.625  1.00  0.00     0.047 A 
ATOM     21  C   UNL     1       8.496   7.041  -6.769  1.00  0.00     0.012 A 
ATOM     22  C   UNL     1       9.961   7.261  -4.871  1.00  0.00     0.012 A 
BRANCH  18  23
ATOM     23  O   UNL     1      11.768   5.871  -7.804  1.00  0.00    -0.490 OA
BRANCH  23  24
ATOM     24  C   UNL     1      11.344   5.261  -9.022  1.00  0.00     0.257 C 
BRANCH  24  25
ATOM     25  C   UNL     1      11.385   3.766  -8.889  1.00  0.00     0.006 C 
ATOM     26  C   UNL     1      10.330   2.999  -8.581  1.00  0.00     0.007 C 
ENDBRANCH  24  25
ENDBRANCH  23  24
ENDBRANCH  18  23
ENDBRANCH   1  17
BRANCH   8  27
ATOM     27  C   UNL     1       0.816   7.421  -1.484  1.00  0.00    -0.018 A 
ATOM     28  C   UNL     1       0.382   8.745  -1.644  1.00  0.00     0.012 A 
ATOM     29  C   UNL     1       0.169   6.616  -0.537  1.00  0.00     0.012 A 
ATOM     30  C   UNL     1      -0.678   9.253  -0.882  1.00  0.00     0.047 A 
ATOM     31  C   UNL     1      -0.888   7.124   0.222  1.00  0.00     0.047 A 
ATOM     32  C   UNL     1      -1.318   8.442   0.053  1.00  0.00     0.119 A 
BRANCH  32  33
ATOM     33  O   UNL     1      -2.362   8.807   0.858  1.00  0.00    -0.490 OA
BRANCH  33  34
ATOM     34  C   UNL     1      -2.765  10.174   0.819  1.00  0.00     0.257 C 
BRANCH  34  35
ATOM     35  C   UNL     1      -2.089  10.872   1.961  1.00  0.00     0.006 C 
ATOM     36  C   UNL     1      -2.403  10.706   3.254  1.00  0.00     0.007 C 
ENDBRANCH  34  35
ENDBRANCH  33  34
ENDBRANCH  32  33
ENDBRANCH   8  27
TORSDOF 8
ENDMDL
MODEL 10
REMARK VINA RESULT:    -8.693      3.251      7.665
REMARK INTER + INTRA:         -19.132
REMARK INTER:                 -18.545
REMARK INTRA:                  -0.588
REMARK UNBOUND:                -2.309
REMARK SMILES C=CCOc1ccc(-c2ccc3ccc4c(-c5ccc(OCC=C)cc5)ccc5ccc2c3c54)cc1
REMARK SMILES IDX 9 1 10 2 11 3 12 4 13 5 14 6 15 7 16 8 27 9 28 10 29 11
REMARK SMILES IDX 30 12 31 13 32 14 33 15 34 16 8 17 5 18 6 19 36 20 7 21
REMARK SMILES IDX 35 22 4 23 3 24 2 25 1 26 17 27 18 28 26 29 19 30 25 31
REMARK SMILES IDX 20 32 21 33 22 34 23 35 24 36
REMARK H PARENT
REMARK Flexibility Score: inf
ROOT
ATOM      1  C   UNL     1       8.602   7.132  -2.586  1.00  0.00    -0.010 A 
ATOM      2  C   UNL     1       9.002   5.910  -2.023  1.00  0.00     0.010 A 
ATOM      3  C   UNL     1       8.247   5.297  -1.027  1.00  0.00     0.009 A 
ATOM      4  C   UNL     1       7.068   5.890  -0.567  1.00  0.00    -0.017 A 
ATOM      5  C   UNL     1       6.313   5.274   0.432  1.00  0.00     0.009 A 
ATOM      6  C   UNL     1       5.135   5.859   0.897  1.00  0.00     0.010 A 
ATOM      7  C   UNL     1       4.663   7.083   0.382  1.00  0.00    -0.009 A 
ATOM      8  C   UNL     1       3.464   7.701   0.836  1.00  0.00    -0.010 A 
ATOM      9  C   UNL     1       3.064   8.924   0.275  1.00  0.00     0.010 A 
ATOM     10  C   UNL     1       3.820   9.538  -0.719  1.00  0.00     0.009 A 
ATOM     11  C   UNL     1       5.000   8.945  -1.180  1.00  0.00    -0.017 A 
ATOM     12  C   UNL     1       5.756   9.563  -2.177  1.00  0.00     0.009 A 
ATOM     13  C   UNL     1       6.934   8.978  -2.642  1.00  0.00     0.010 A 
ATOM     14  C   UNL     1       7.404   7.752  -2.130  1.00  0.00    -0.009 A 
ATOM     15  C   UNL     1       6.636   7.121  -1.114  1.00  0.00    -0.002 A 
ATOM     16  C   UNL     1       5.431   7.714  -0.634  1.00  0.00    -0.002 A 
ENDROOT
BRANCH   1  17
ATOM     17  C   UNL     1       9.451   7.722  -3.632  1.00  0.00    -0.018 A 
ATOM     18  C   UNL     1      11.082   8.839  -5.649  1.00  0.00     0.119 A 
ATOM     19  C   UNL     1       9.930   9.500  -5.215  1.00  0.00     0.047 A 
ATOM     20  C   UNL     1      11.412   7.610  -5.080  1.00  0.00     0.047 A 
ATOM     21  C   UNL     1       9.122   8.951  -4.217  1.00  0.00     0.012 A 
ATOM     22  C   UNL     1      10.603   7.058  -4.079  1.00  0.00     0.012 A 
BRANCH  18  23
ATOM     23  O   UNL     1      11.769   9.487  -6.636  1.00  0.00    -0.490 OA
BRANCH  23  24
ATOM     24  C   UNL     1      11.066   9.927  -7.798  1.00  0.00     0.257 C 
BRANCH  24  25
ATOM     25  C   UNL     1      10.831   8.770  -8.725  1.00  0.00     0.006 C 
ATOM     26  C   UNL     1      11.769   7.884  -9.089  1.00  0.00     0.007 C 
ENDBRANCH  24  25
ENDBRANCH  23  24
ENDBRANCH  18  23
ENDBRANCH   1  17
BRANCH   8  27
ATOM     27  C   UNL     1       2.613   7.108   1.880  1.00  0.00    -0.018 A 
ATOM     28  C   UNL     1       2.103   7.894   2.923  1.00  0.00     0.012 A 
ATOM     29  C   UNL     1       2.298   5.742   1.857  1.00  0.00     0.012 A 
ATOM     30  C   UNL     1       1.291   7.334   3.917  1.00  0.00     0.047 A 
ATOM     31  C   UNL     1       1.488   5.186   2.850  1.00  0.00     0.047 A 
ATOM     32  C   UNL     1       0.979   5.976   3.883  1.00  0.00     0.119 A 
BRANCH  32  33
ATOM     33  O   UNL     1       0.201   5.303   4.784  1.00  0.00    -0.490 OA
BRANCH  33  34
ATOM     34  C   UNL     1       0.873   4.518   5.765  1.00  0.00     0.257 C 
BRANCH  34  35
ATOM     35  C   UNL     1       0.240   3.159   5.761  1.00  0.00     0.006 C 
ATOM     36  C   UNL     1       0.448   2.220   4.826  1.00  0.00     0.007 C 
ENDBRANCH  34  35
ENDBRANCH  33  34
ENDBRANCH  32  33
ENDBRANCH   8  27
TORSDOF 8
REMARK SMILES C=CCOc1ccc(-c2ccc3ccc4c(-c5ccc(OCC=C)cc5)ccc5ccc2c3c54)cc1
REMARK SMILES IDX 9 1 10 2 11 3 12 4 13 5 14 6 15 7 16 8 27 9 28 10 29 11
REMARK SMILES IDX 30 12 31 13 32 14 33 15 34 16 8 17 5 18 6 19 36 20 7 21
REMARK SMILES IDX 35 22 4 23 3 24 2 25 1 26 17 27 18 28 26 29 19 30 25 31
REMARK SMILES IDX 20 32 21 33 22 34 23 35 24 36
REMARK H PARENT
REMARK Flexibility Score: inf
ROOT
ATOM      1  C   UNL     1       2.111   5.907  -1.848  1.00  0.00    -0.010 A 
ATOM      2  C   UNL     1       2.405   4.676  -1.240  1.00  0.00     0.010 A 
ATOM      3  C   UNL     1       3.533   3.948  -1.606  1.00  0.00     0.009 A 
ATOM      4  C   UNL     1       4.399   4.431  -2.590  1.00  0.00    -0.017 A 
ATOM      5  C   UNL     1       5.529   3.697  -2.957  1.00  0.00     0.009 A 
ATOM      6  C   UNL     1       6.399   4.172  -3.938  1.00  0.00     0.010 A 
ATOM      7  C   UNL     1       6.175   5.400  -4.594  1.00  0.00    -0.009 A 
ATOM      8  C   UNL     1       7.047   5.909  -5.598  1.00  0.00    -0.010 A 
ATOM      9  C   UNL     1       6.752   7.138  -6.207  1.00  0.00     0.010 A 
ATOM     10  C   UNL     1       5.623   7.866  -5.843  1.00  0.00     0.009 A 
ATOM     11  C   UNL     1       4.756   7.383  -4.858  1.00  0.00    -0.017 A 
ATOM     12  C   UNL     1       3.625   8.115  -4.494  1.00  0.00     0.009 A 
ATOM     13  C   UNL     1       2.755   7.640  -3.513  1.00  0.00     0.010 A 
ATOM     14  C   UNL     1       2.981   6.416  -2.853  1.00  0.00    -0.009 A 
ATOM     15  C   UNL     1       4.132   5.668  -3.223  1.00  0.00    -0.002 A 
ATOM     16  C   UNL     1       5.024   6.147  -4.226  1.00  0.00    -0.002 A 
ENDROOT
BRANCH   1  17
ATOM     17  C   UNL     1       0.900   6.620  -1.412  1.00  0.00    -0.018 A 
ATOM     18  C   UNL     1      -1.422   7.983  -0.559  1.00  0.00     0.119 A 
ATOM     19  C   UNL     1      -0.405   8.661  -1.237  1.00  0.00     0.047 A 
ATOM     20  C   UNL     1      -1.271   6.622  -0.298  1.00  0.00     0.047 A 
ATOM     21  C   UNL     1       0.744   7.990  -1.661  1.00  0.00     0.012 A 
ATOM     22  C   UNL     1      -0.119   5.947  -0.723  1.00  0.00     0.012 A 
BRANCH  18  23
ATOM     23  O   UNL     1      -2.480   8.767  -0.197  1.00  0.00    -0.490 OA
BRANCH  23  24
ATOM     24  C   UNL     1      -2.252   9.898   0.644  1.00  0.00     0.257 C 
BRANCH  24  25
ATOM     25  C   UNL     1      -1.662   9.454   1.952  1.00  0.00     0.006 C 
ATOM     26  C   UNL     1      -1.045  10.265   2.822  1.00  0.00     0.007 C 
ENDBRANCH  24  25
ENDBRANCH  23  24
ENDBRANCH  18  23
ENDBRANCH   1  17
BRANCH   8  27
ATOM     27  C   UNL     1       8.260   5.196  -6.030  1.00  0.00    -0.018 A 
ATOM     28  C   UNL     1       8.915   5.548  -7.219  1.00  0.00     0.012 A 
ATOM     29  C   UNL     1       8.785   4.146  -5.264  1.00  0.00     0.012 A 
ATOM     30  C   UNL     1      10.070   4.874  -7.633  1.00  0.00     0.047 A 
ATOM     31  C   UNL     1       9.938   3.474  -5.679  1.00  0.00     0.047 A 
ATOM     32  C   UNL     1      10.587   3.834  -6.862  1.00  0.00     0.119 A 
BRANCH  32  33
ATOM     33  O   UNL     1      11.703   3.096  -7.146  1.00  0.00    -0.490 OA
BRANCH  33  34
ATOM     34  C   UNL     1      11.741   2.436  -8.408  1.00  0.00     0.257 C 
BRANCH  34  35
ATOM     35  C   UNL     1      11.424   0.990  -8.167  1.00  0.00     0.006 C 
ATOM     36  C   UNL     1      11.739   0.313  -7.054  1.00  0.00     0.007 C 
ENDBRANCH  34  35
ENDBRANCH  33  34
ENDBRANCH  32  33
ENDBRANCH   8  27
TORSDOF 8
ENDMDL
MODEL 11
REMARK VINA RESULT:    -8.541      3.227      9.733
REMARK INTER + INTRA:         -18.839
REMARK INTER:                 -18.929
REMARK INTRA:                   0.090
REMARK UNBOUND:                -2.309
REMARK SMILES C=CCOc1ccc(-c2ccc3ccc4c(-c5ccc(OCC=C)cc5)ccc5ccc2c3c54)cc1
REMARK SMILES IDX 9 1 10 2 11 3 12 4 13 5 14 6 15 7 16 8 27 9 28 10 29 11
REMARK SMILES IDX 30 12 31 13 32 14 33 15 34 16 8 17 5 18 6 19 36 20 7 21
REMARK SMILES IDX 35 22 4 23 3 24 2 25 1 26 17 27 18 28 26 29 19 30 25 31
REMARK SMILES IDX 20 32 21 33 22 34 23 35 24 36
REMARK H PARENT
REMARK Flexibility Score: inf
ROOT
ATOM      1  C   UNL     1       3.429   5.021  -0.490  1.00  0.00    -0.010 A 
ATOM      2  C   UNL     1       2.626   4.684  -1.592  1.00  0.00     0.010 A 
ATOM      3  C   UNL     1       3.191   4.409  -2.834  1.00  0.00     0.009 A 
ATOM      4  C   UNL     1       4.577   4.462  -3.008  1.00  0.00    -0.017 A 
ATOM      5  C   UNL     1       5.141   4.188  -4.255  1.00  0.00     0.009 A 
ATOM      6  C   UNL     1       6.523   4.239  -4.438  1.00  0.00     0.010 A 
ATOM      7  C   UNL     1       7.398   4.567  -3.382  1.00  0.00    -0.009 A 
ATOM      8  C   UNL     1       8.811   4.625  -3.541  1.00  0.00    -0.010 A 
ATOM      9  C   UNL     1       9.614   4.964  -2.440  1.00  0.00     0.010 A 
ATOM     10  C   UNL     1       9.049   5.242  -1.199  1.00  0.00     0.009 A 
ATOM     11  C   UNL     1       7.663   5.188  -1.024  1.00  0.00    -0.017 A 
ATOM     12  C   UNL     1       7.098   5.465   0.222  1.00  0.00     0.009 A 
ATOM     13  C   UNL     1       5.717   5.414   0.405  1.00  0.00     0.010 A 
ATOM     14  C   UNL     1       4.842   5.081  -0.649  1.00  0.00    -0.009 A 
ATOM     15  C   UNL     1       5.414   4.799  -1.919  1.00  0.00    -0.002 A 
ATOM     16  C   UNL     1       6.826   4.850  -2.113  1.00  0.00    -0.002 A 
ENDROOT
BRANCH   1  17
ATOM     17  C   UNL     1       2.761   5.301   0.790  1.00  0.00    -0.018 A 
ATOM     18  C   UNL     1       1.481   5.854   3.245  1.00  0.00     0.119 A 
ATOM     19  C   UNL     1       0.893   4.997   2.312  1.00  0.00     0.047 A 
ATOM     20  C   UNL     1       2.708   6.444   2.945  1.00  0.00     0.047 A 
ATOM     21  C   UNL     1       1.524   4.721   1.097  1.00  0.00     0.012 A 
ATOM     22  C   UNL     1       3.342   6.168   1.727  1.00  0.00     0.012 A 
BRANCH  18  23
ATOM     23  O   UNL     1       0.747   6.040   4.383  1.00  0.00    -0.490 OA
BRANCH  23  24
ATOM     24  C   UNL     1      -0.558   5.470   4.469  1.00  0.00     0.257 C 
BRANCH  24  25
ATOM     25  C   UNL     1      -0.566   4.356   5.477  1.00  0.00     0.006 C 
ATOM     26  C   UNL     1       0.517   3.661   5.851  1.00  0.00     0.007 C 
ENDBRANCH  24  25
ENDBRANCH  23  24
ENDBRANCH  18  23
ENDBRANCH   1  17
BRANCH   8  27
ATOM     27  C   UNL     1       9.478   4.341  -4.822  1.00  0.00    -0.018 A 
ATOM     28  C   UNL     1      10.877   4.320  -4.914  1.00  0.00     0.012 A 
ATOM     29  C   UNL     1       8.728   4.090  -5.979  1.00  0.00     0.012 A 
ATOM     30  C   UNL     1      11.515   4.047  -6.130  1.00  0.00     0.047 A 
ATOM     31  C   UNL     1       9.367   3.819  -7.192  1.00  0.00     0.047 A 
ATOM     32  C   UNL     1      10.760   3.794  -7.274  1.00  0.00     0.119 A 
BRANCH  32  33
ATOM     33  O   UNL     1      11.252   3.513  -8.520  1.00  0.00    -0.490 OA
BRANCH  33  34
ATOM     34  C   UNL     1      11.767   2.202  -8.735  1.00  0.00     0.257 C 
BRANCH  34  35
ATOM     35  C   UNL     1      10.702   1.230  -8.325  1.00  0.00     0.006 C 
ATOM     36  C   UNL     1      10.926   0.073  -7.686  1.00  0.00     0.007 C 
ENDBRANCH  34  35
ENDBRANCH  33  34
ENDBRANCH  32  33
ENDBRANCH   8  27
TORSDOF 8
REMARK SMILES C=CCOc1ccc(-c2ccc3ccc4c(-c5ccc(OCC=C)cc5)ccc5ccc2c3c54)cc1
REMARK SMILES IDX 9 1 10 2 11 3 12 4 13 5 14 6 15 7 16 8 27 9 28 10 29 11
REMARK SMILES IDX 30 12 31 13 32 14 33 15 34 16 8 17 5 18 6 19 36 20 7 21
REMARK SMILES IDX 35 22 4 23 3 24 2 25 1 26 17 27 18 28 26 29 19 30 25 31
REMARK SMILES IDX 20 32 21 33 22 34 23 35 24 36
REMARK H PARENT
REMARK Flexibility Score: inf
ROOT
ATOM      1  C   UNL     1       7.814   8.216  -3.635  1.00  0.00    -0.010 A 
ATOM      2  C   UNL     1       8.476   8.581  -2.451  1.00  0.00     0.010 A 
ATOM      3  C   UNL     1       7.767   8.819  -1.277  1.00  0.00     0.009 A 
ATOM      4  C   UNL     1       6.375   8.695  -1.254  1.00  0.00    -0.017 A 
ATOM      5  C   UNL     1       5.666   8.935  -0.076  1.00  0.00     0.009 A 
ATOM      6  C   UNL     1       4.277   8.815  -0.043  1.00  0.00     0.010 A 
ATOM      7  C   UNL     1       3.539   8.449  -1.187  1.00  0.00    -0.009 A 
ATOM      8  C   UNL     1       2.121   8.317  -1.182  1.00  0.00    -0.010 A 
ATOM      9  C   UNL     1       1.459   7.953  -2.365  1.00  0.00     0.010 A 
ATOM     10  C   UNL     1       2.168   7.718  -3.540  1.00  0.00     0.009 A 
ATOM     11  C   UNL     1       3.560   7.841  -3.564  1.00  0.00    -0.017 A 
ATOM     12  C   UNL     1       4.269   7.604  -4.743  1.00  0.00     0.009 A 
ATOM     13  C   UNL     1       5.658   7.725  -4.775  1.00  0.00     0.010 A 
ATOM     14  C   UNL     1       6.396   8.085  -3.630  1.00  0.00    -0.009 A 
ATOM     15  C   UNL     1       5.678   8.328  -2.429  1.00  0.00    -0.002 A 
ATOM     16  C   UNL     1       4.258   8.207  -2.389  1.00  0.00    -0.002 A 
ENDROOT
BRANCH   1  17
ATOM     17  C   UNL     1       8.629   7.983  -4.837  1.00  0.00    -0.018 A 
ATOM     18  C   UNL     1      10.184   7.549  -7.154  1.00  0.00     0.119 A 
ATOM     19  C   UNL     1      10.794   7.807  -5.924  1.00  0.00     0.047 A 
ATOM     20  C   UNL     1       8.792   7.518  -7.227  1.00  0.00     0.047 A 
ATOM     21  C   UNL     1      10.027   8.022  -4.776  1.00  0.00     0.012 A 
ATOM     22  C   UNL     1       8.022   7.733  -6.077  1.00  0.00     0.012 A 
BRANCH  18  23
ATOM     23  O   UNL     1      11.055   7.369  -8.191  1.00  0.00    -0.490 OA
BRANCH  23  24
ATOM     24  C   UNL     1      11.745   8.499  -8.723  1.00  0.00     0.257 C 
BRANCH  24  25
ATOM     25  C   UNL     1      10.763   9.577  -9.083  1.00  0.00     0.006 C 
ATOM     26  C   UNL     1      10.635  10.740  -8.430  1.00  0.00     0.007 C 
ENDBRANCH  24  25
ENDBRANCH  23  24
ENDBRANCH  18  23
ENDBRANCH   1  17
BRANCH   8  27
ATOM     27  C   UNL     1       1.309   8.546   0.023  1.00  0.00    -0.018 A 
ATOM     28  C   UNL     1       1.751   9.413   1.033  1.00  0.00     0.012 A 
ATOM     29  C   UNL     1       0.077   7.898   0.191  1.00  0.00     0.012 A 
ATOM     30  C   UNL     1       0.980   9.635   2.181  1.00  0.00     0.047 A 
ATOM     31  C   UNL     1      -0.690   8.121   1.337  1.00  0.00     0.047 A 
ATOM     32  C   UNL     1      -0.246   8.990   2.336  1.00  0.00     0.119 A 
BRANCH  32  33
ATOM     33  O   UNL     1      -1.096   9.118   3.400  1.00  0.00    -0.490 OA
BRANCH  33  34
ATOM     34  C   UNL     1      -0.513   9.424   4.664  1.00  0.00     0.257 C 
BRANCH  34  35
ATOM     35  C   UNL     1      -1.069  10.744   5.105  1.00  0.00     0.006 C 
ATOM     36  C   UNL     1      -0.337  11.840   5.350  1.00  0.00     0.007 C 
ENDBRANCH  34  35
ENDBRANCH  33  34
ENDBRANCH  32  33
ENDBRANCH   8  27
TORSDOF 8
ENDMDL
MODEL 12
REMARK VINA RESULT:    -8.523      3.579      9.345
REMARK INTER + INTRA:         -18.804
REMARK INTER:                 -17.167
REMARK INTRA:                  -1.637
REMARK UNBOUND:                -2.309
REMARK SMILES C=CCOc1ccc(-c2ccc3ccc4c(-c5ccc(OCC=C)cc5)ccc5ccc2c3c54)cc1
REMARK SMILES IDX 9 1 10 2 11 3 12 4 13 5 14 6 15 7 16 8 27 9 28 10 29 11
REMARK SMILES IDX 30 12 31 13 32 14 33 15 34 16 8 17 5 18 6 19 36 20 7 21
REMARK SMILES IDX 35 22 4 23 3 24 2 25 1 26 17 27 18 28 26 29 19 30 25 31
REMARK SMILES IDX 20 32 21 33 22 34 23 35 24 36
REMARK H PARENT
REMARK Flexibility Score: inf
ROOT
ATOM      1  C   UNL     1       7.903   7.384  -5.520  1.00  0.00    -0.010 A 
ATOM      2  C   UNL     1       8.211   8.705  -5.155  1.00  0.00     0.010 A 
ATOM      3  C   UNL     1       7.332   9.459  -4.382  1.00  0.00     0.009 A 
ATOM      4  C   UNL     1       6.120   8.912  -3.952  1.00  0.00    -0.017 A 
ATOM      5  C   UNL     1       5.240   9.670  -3.179  1.00  0.00     0.009 A 
ATOM      6  C   UNL     1       4.029   9.132  -2.745  1.00  0.00     0.010 A 
ATOM      7  C   UNL     1       3.647   7.813  -3.067  1.00  0.00    -0.009 A 
ATOM      8  C   UNL     1       2.418   7.238  -2.636  1.00  0.00    -0.010 A 
ATOM      9  C   UNL     1       2.109   5.919  -3.002  1.00  0.00     0.010 A 
ATOM     10  C   UNL     1       2.987   5.166  -3.777  1.00  0.00     0.009 A 
ATOM     11  C   UNL     1       4.199   5.713  -4.208  1.00  0.00    -0.017 A 
ATOM     12  C   UNL     1       5.078   4.955  -4.984  1.00  0.00     0.009 A 
ATOM     13  C   UNL     1       6.290   5.494  -5.417  1.00  0.00     0.010 A 
ATOM     14  C   UNL     1       6.673   6.810  -5.092  1.00  0.00    -0.009 A 
ATOM     15  C   UNL     1       5.780   7.584  -4.303  1.00  0.00    -0.002 A 
ATOM     16  C   UNL     1       4.540   7.040  -3.857  1.00  0.00    -0.002 A 
ENDROOT
BRANCH   1  17
ATOM     17  C   UNL     1       8.879   6.650  -6.340  1.00  0.00    -0.018 A 
ATOM     18  C   UNL     1      10.754   5.253  -7.924  1.00  0.00     0.119 A 
ATOM     19  C   UNL     1      10.943   5.385  -6.546  1.00  0.00     0.047 A 
ATOM     20  C   UNL     1       9.630   5.830  -8.512  1.00  0.00     0.047 A 
ATOM     21  C   UNL     1      10.017   6.075  -5.759  1.00  0.00     0.012 A 
ATOM     22  C   UNL     1       8.700   6.522  -7.725  1.00  0.00     0.012 A 
BRANCH  18  23
ATOM     23  O   UNL     1      11.743   4.563  -8.566  1.00  0.00    -0.490 OA
BRANCH  23  24
ATOM     24  C   UNL     1      11.454   3.272  -9.101  1.00  0.00     0.257 C 
BRANCH  24  25
ATOM     25  C   UNL     1      10.924   2.375  -8.020  1.00  0.00     0.006 C 
ATOM     26  C   UNL     1       9.739   1.749  -8.064  1.00  0.00     0.007 C 
ENDBRANCH  24  25
ENDBRANCH  23  24
ENDBRANCH  18  23
ENDBRANCH   1  17
BRANCH   8  27
ATOM     27  C   UNL     1       1.445   7.974  -1.812  1.00  0.00    -0.018 A 
ATOM     28  C   UNL     1       1.785   9.199  -1.221  1.00  0.00     0.012 A 
ATOM     29  C   UNL     1       0.158   7.463  -1.596  1.00  0.00     0.012 A 
ATOM     30  C   UNL     1       0.862   9.903  -0.439  1.00  0.00     0.047 A 
ATOM     31  C   UNL     1      -0.762   8.167  -0.815  1.00  0.00     0.047 A 
ATOM     32  C   UNL     1      -0.417   9.389  -0.235  1.00  0.00     0.119 A 
BRANCH  32  33
ATOM     33  O   UNL     1      -1.412   9.971   0.502  1.00  0.00    -0.490 OA
BRANCH  33  34
ATOM     34  C   UNL     1      -1.223  10.036   1.913  1.00  0.00     0.257 C 
BRANCH  34  35
ATOM     35  C   UNL     1      -1.988   8.899   2.521  1.00  0.00     0.006 C 
ATOM     36  C   UNL     1      -1.484   7.681   2.766  1.00  0.00     0.007 C 
ENDBRANCH  34  35
ENDBRANCH  33  34
ENDBRANCH  32  33
ENDBRANCH   8  27
TORSDOF 8
REMARK SMILES C=CCOc1ccc(-c2ccc3ccc4c(-c5ccc(OCC=C)cc5)ccc5ccc2c3c54)cc1
REMARK SMILES IDX 9 1 10 2 11 3 12 4 13 5 14 6 15 7 16 8 27 9 28 10 29 11
REMARK SMILES IDX 30 12 31 13 32 14 33 15 34 16 8 17 5 18 6 19 36 20 7 21
REMARK SMILES IDX 35 22 4 23 3 24 2 25 1 26 17 27 18 28 26 29 19 30 25 31
REMARK SMILES IDX 20 32 21 33 22 34 23 35 24 36
REMARK H PARENT
REMARK Flexibility Score: inf
ROOT
ATOM      1  C   UNL     1       7.424   6.414  -1.442  1.00  0.00    -0.010 A 
ATOM      2  C   UNL     1       7.460   5.121  -1.989  1.00  0.00     0.010 A 
ATOM      3  C   UNL     1       6.407   4.231  -1.796  1.00  0.00     0.009 A 
ATOM      4  C   UNL     1       5.287   4.611  -1.052  1.00  0.00    -0.017 A 
ATOM      5  C   UNL     1       4.233   3.717  -0.858  1.00  0.00     0.009 A 
ATOM      6  C   UNL     1       3.112   4.088  -0.117  1.00  0.00     0.010 A 
ATOM      7  C   UNL     1       2.997   5.368   0.462  1.00  0.00    -0.009 A 
ATOM      8  C   UNL     1       1.863   5.774   1.222  1.00  0.00    -0.010 A 
ATOM      9  C   UNL     1       1.828   7.065   1.770  1.00  0.00     0.010 A 
ATOM     10  C   UNL     1       2.882   7.954   1.579  1.00  0.00     0.009 A 
ATOM     11  C   UNL     1       4.003   7.575   0.834  1.00  0.00    -0.017 A 
ATOM     12  C   UNL     1       5.058   8.468   0.644  1.00  0.00     0.009 A 
ATOM     13  C   UNL     1       6.180   8.097  -0.098  1.00  0.00     0.010 A 
ATOM     14  C   UNL     1       6.292   6.819  -0.681  1.00  0.00    -0.009 A 
ATOM     15  C   UNL     1       5.219   5.907  -0.488  1.00  0.00    -0.002 A 
ATOM     16  C   UNL     1       4.070   6.280   0.270  1.00  0.00    -0.002 A 
ENDROOT
BRANCH   1  17
ATOM     17  C   UNL     1       8.574   7.298  -1.686  1.00  0.00    -0.018 A 
ATOM     18  C   UNL     1      10.782   8.991  -2.169  1.00  0.00     0.119 A 
ATOM     19  C   UNL     1       9.637   9.477  -1.534  1.00  0.00     0.047 A 
ATOM     20  C   UNL     1      10.819   7.657  -2.572  1.00  0.00     0.047 A 
ATOM     21  C   UNL     1       8.543   8.642  -1.292  1.00  0.00     0.012 A 
ATOM     22  C   UNL     1       9.723   6.819  -2.331  1.00  0.00     0.012 A 
BRANCH  18  23
ATOM     23  O   UNL     1      11.767   9.921  -2.347  1.00  0.00    -0.490 OA
BRANCH  23  24
ATOM     24  C   UNL     1      11.475  11.111  -3.079  1.00  0.00     0.257 C 
BRANCH  24  25
ATOM     25  C   UNL     1      11.111  10.768  -4.494  1.00  0.00     0.006 C 
ATOM     26  C   UNL     1      10.867  11.668  -5.457  1.00  0.00     0.007 C 
ENDBRANCH  24  25
ENDBRANCH  23  24
ENDBRANCH  18  23
ENDBRANCH   1  17
BRANCH   8  27
ATOM     27  C   UNL     1       0.712   4.889   1.461  1.00  0.00    -0.018 A 
ATOM     28  C   UNL     1      -0.271   4.709   0.476  1.00  0.00     0.012 A 
ATOM     29  C   UNL     1       0.569   4.211   2.679  1.00  0.00     0.012 A 
ATOM     30  C   UNL     1      -1.367   3.866   0.698  1.00  0.00     0.047 A 
ATOM     31  C   UNL     1      -0.525   3.371   2.898  1.00  0.00     0.047 A 
ATOM     32  C   UNL     1      -1.497   3.192   1.911  1.00  0.00     0.119 A 
BRANCH  32  33
ATOM     33  O   UNL     1      -2.511   2.342   2.258  1.00  0.00    -0.490 OA
BRANCH  33  34
ATOM     34  C   UNL     1      -2.141   1.081   2.809  1.00  0.00     0.257 C 
BRANCH  34  35
ATOM     35  C   UNL     1      -2.611   0.021   1.858  1.00  0.00     0.006 C 
ATOM     36  C   UNL     1      -2.595   0.129   0.522  1.00  0.00     0.007 C 
ENDBRANCH  34  35
ENDBRANCH  33  34
ENDBRANCH  32  33
ENDBRANCH   8  27
TORSDOF 8
ENDMDL
MODEL 13
REMARK VINA RESULT:    -8.515      3.149      7.626
REMARK INTER + INTRA:         -18.788
REMARK INTER:                 -18.404
REMARK INTRA:                  -0.384
REMARK UNBOUND:                -2.309
REMARK SMILES C=CCOc1ccc(-c2ccc3ccc4c(-c5ccc(OCC=C)cc5)ccc5ccc2c3c54)cc1
REMARK SMILES IDX 9 1 10 2 11 3 12 4 13 5 14 6 15 7 16 8 27 9 28 10 29 11
REMARK SMILES IDX 30 12 31 13 32 14 33 15 34 16 8 17 5 18 6 19 36 20 7 21
REMARK SMILES IDX 35 22 4 23 3 24 2 25 1 26 17 27 18 28 26 29 19 30 25 31
REMARK SMILES IDX 20 32 21 33 22 34 23 35 24 36
REMARK H PARENT
REMARK Flexibility Score: inf
ROOT
ATOM      1  C   UNL     1       7.151   5.504  -5.918  1.00  0.00    -0.010 A 
ATOM      2  C   UNL     1       6.832   6.695  -6.591  1.00  0.00     0.010 A 
ATOM      3  C   UNL     1       5.725   7.454  -6.220  1.00  0.00     0.009 A 
ATOM      4  C   UNL     1       4.907   7.043  -5.165  1.00  0.00    -0.017 A 
ATOM      5  C   UNL     1       3.797   7.805  -4.797  1.00  0.00     0.009 A 
ATOM      6  C   UNL     1       2.974   7.402  -3.745  1.00  0.00     0.010 A 
ATOM      7  C   UNL     1       3.227   6.221  -3.017  1.00  0.00    -0.009 A 
ATOM      8  C   UNL     1       2.406   5.788  -1.938  1.00  0.00    -0.010 A 
ATOM      9  C   UNL     1       2.723   4.597  -1.267  1.00  0.00     0.010 A 
ATOM     10  C   UNL     1       3.828   3.837  -1.638  1.00  0.00     0.009 A 
ATOM     11  C   UNL     1       4.648   4.247  -2.694  1.00  0.00    -0.017 A 
ATOM     12  C   UNL     1       5.756   3.484  -3.065  1.00  0.00     0.009 A 
ATOM     13  C   UNL     1       6.578   3.887  -4.117  1.00  0.00     0.010 A 
ATOM     14  C   UNL     1       6.328   5.070  -4.841  1.00  0.00    -0.009 A 
ATOM     15  C   UNL     1       5.200   5.849  -4.466  1.00  0.00    -0.002 A 
ATOM     16  C   UNL     1       4.355   5.442  -3.392  1.00  0.00    -0.002 A 
ENDROOT
BRANCH   1  17
ATOM     17  C   UNL     1       8.334   4.754  -6.366  1.00  0.00    -0.018 A 
ATOM     18  C   UNL     1      10.599   3.300  -7.219  1.00  0.00     0.119 A 
ATOM     19  C   UNL     1       9.800   3.981  -8.141  1.00  0.00     0.047 A 
ATOM     20  C   UNL     1      10.258   3.339  -5.868  1.00  0.00     0.047 A 
ATOM     21  C   UNL     1       8.679   4.702  -7.723  1.00  0.00     0.012 A 
ATOM     22  C   UNL     1       9.134   4.061  -5.447  1.00  0.00     0.012 A 
BRANCH  18  23
ATOM     23  O   UNL     1      11.655   2.631  -7.771  1.00  0.00    -0.490 OA
BRANCH  23  24
ATOM     24  C   UNL     1      11.400   1.557  -8.676  1.00  0.00     0.257 C 
BRANCH  24  25
ATOM     25  C   UNL     1      11.656   0.242  -7.997  1.00  0.00     0.006 C 
ATOM     26  C   UNL     1      10.977  -0.210  -6.934  1.00  0.00     0.007 C 
ENDBRANCH  24  25
ENDBRANCH  23  24
ENDBRANCH  18  23
ENDBRANCH   1  17
BRANCH   8  27
ATOM     27  C   UNL     1       1.225   6.542  -1.488  1.00  0.00    -0.018 A 
ATOM     28  C   UNL     1       0.332   5.991  -0.559  1.00  0.00     0.012 A 
ATOM     29  C   UNL     1       0.965   7.827  -1.984  1.00  0.00     0.012 A 
ATOM     30  C   UNL     1      -0.792   6.705  -0.126  1.00  0.00     0.047 A 
ATOM     31  C   UNL     1      -0.157   8.539  -1.551  1.00  0.00     0.047 A 
ATOM     32  C   UNL     1      -1.039   7.985  -0.621  1.00  0.00     0.119 A 
BRANCH  32  33
ATOM     33  O   UNL     1      -2.092   8.791  -0.285  1.00  0.00    -0.490 OA
BRANCH  33  34
ATOM     34  C   UNL     1      -2.465   8.832   1.090  1.00  0.00     0.257 C 
BRANCH  34  35
ATOM     35  C   UNL     1      -1.590   9.847   1.761  1.00  0.00     0.006 C 
ATOM     36  C   UNL     1      -1.088  10.939   1.167  1.00  0.00     0.007 C 
ENDBRANCH  34  35
ENDBRANCH  33  34
ENDBRANCH  32  33
ENDBRANCH   8  27
TORSDOF 8
REMARK SMILES C=CCOc1ccc(-c2ccc3ccc4c(-c5ccc(OCC=C)cc5)ccc5ccc2c3c54)cc1
REMARK SMILES IDX 9 1 10 2 11 3 12 4 13 5 14 6 15 7 16 8 27 9 28 10 29 11
REMARK SMILES IDX 30 12 31 13 32 14 33 15 34 16 8 17 5 18 6 19 36 20 7 21
REMARK SMILES IDX 35 22 4 23 3 24 2 25 1 26 17 27 18 28 26 29 19 30 25 31
REMARK SMILES IDX 20 32 21 33 22 34 23 35 24 36
REMARK H PARENT
REMARK Flexibility Score: inf
ROOT
ATOM      1  C   UNL     1       3.753   7.834   0.552  1.00  0.00    -0.010 A 
ATOM      2  C   UNL     1       3.336   9.021  -0.071  1.00  0.00     0.010 A 
ATOM      3  C   UNL     1       4.058   9.569  -1.127  1.00  0.00     0.009 A 
ATOM      4  C   UNL     1       5.218   8.943  -1.591  1.00  0.00    -0.017 A 
ATOM      5  C   UNL     1       5.941   9.496  -2.649  1.00  0.00     0.009 A 
ATOM      6  C   UNL     1       7.100   8.878  -3.118  1.00  0.00     0.010 A 
ATOM      7  C   UNL     1       7.585   7.682  -2.549  1.00  0.00    -0.009 A 
ATOM      8  C   UNL     1       8.763   7.030  -3.010  1.00  0.00    -0.010 A 
ATOM      9  C   UNL     1       9.182   5.844  -2.386  1.00  0.00     0.010 A 
ATOM     10  C   UNL     1       8.461   5.297  -1.328  1.00  0.00     0.009 A 
ATOM     11  C   UNL     1       7.300   5.923  -0.864  1.00  0.00    -0.017 A 
ATOM     12  C   UNL     1       6.578   5.372   0.197  1.00  0.00     0.009 A 
ATOM     13  C   UNL     1       5.419   5.990   0.666  1.00  0.00     0.010 A 
ATOM     14  C   UNL     1       4.933   7.182   0.093  1.00  0.00    -0.009 A 
ATOM     15  C   UNL     1       5.666   7.746  -0.986  1.00  0.00    -0.002 A 
ATOM     16  C   UNL     1       6.852   7.120  -1.470  1.00  0.00    -0.002 A 
ENDROOT
BRANCH   1  17
ATOM     17  C   UNL     1       2.941   7.315   1.663  1.00  0.00    -0.018 A 
ATOM     18  C   UNL     1       1.395   6.311   3.803  1.00  0.00     0.119 A 
ATOM     19  C   UNL     1       1.475   7.685   3.564  1.00  0.00     0.047 A 
ATOM     20  C   UNL     1       2.098   5.438   2.975  1.00  0.00     0.047 A 
ATOM     21  C   UNL     1       2.238   8.185   2.507  1.00  0.00     0.012 A 
ATOM     22  C   UNL     1       2.864   5.937   1.913  1.00  0.00     0.012 A 
BRANCH  18  23
ATOM     23  O   UNL     1       0.622   5.967   4.875  1.00  0.00    -0.490 OA
BRANCH  23  24
ATOM     24  C   UNL     1      -0.464   5.059   4.687  1.00  0.00     0.257 C 
BRANCH  24  25
ATOM     25  C   UNL     1      -1.768   5.801   4.739  1.00  0.00     0.006 C 
ATOM     26  C   UNL     1      -2.480   6.166   3.664  1.00  0.00     0.007 C 
ENDBRANCH  24  25
ENDBRANCH  23  24
ENDBRANCH  18  23
ENDBRANCH   1  17
BRANCH   8  27
ATOM     27  C   UNL     1       9.572   7.548  -4.125  1.00  0.00    -0.018 A 
ATOM     28  C   UNL     1      10.862   7.054  -4.366  1.00  0.00     0.012 A 
ATOM     29  C   UNL     1       9.072   8.551  -4.966  1.00  0.00     0.012 A 
ATOM     30  C   UNL     1      11.634   7.543  -5.427  1.00  0.00     0.047 A 
ATOM     31  C   UNL     1       9.845   9.038  -6.024  1.00  0.00     0.047 A 
ATOM     32  C   UNL     1      11.126   8.537  -6.262  1.00  0.00     0.119 A 
BRANCH  32  33
ATOM     33  O   UNL     1      11.769   9.100  -7.330  1.00  0.00    -0.490 OA
BRANCH  33  34
ATOM     34  C   UNL     1      10.954   9.665  -8.354  1.00  0.00     0.257 C 
BRANCH  34  35
ATOM     35  C   UNL     1      11.240  11.136  -8.393  1.00  0.00     0.006 C 
ATOM     36  C   UNL     1      10.354  12.079  -8.744  1.00  0.00     0.007 C 
ENDBRANCH  34  35
ENDBRANCH  33  34
ENDBRANCH  32  33
ENDBRANCH   8  27
TORSDOF 8
ENDMDL
MODEL 14
REMARK VINA RESULT:    -8.481      3.665      8.103
REMARK INTER + INTRA:         -18.723
REMARK INTER:                 -17.483
REMARK INTRA:                  -1.240
REMARK UNBOUND:                -2.309
REMARK SMILES C=CCOc1ccc(-c2ccc3ccc4c(-c5ccc(OCC=C)cc5)ccc5ccc2c3c54)cc1
REMARK SMILES IDX 9 1 10 2 11 3 12 4 13 5 14 6 15 7 16 8 27 9 28 10 29 11
REMARK SMILES IDX 30 12 31 13 32 14 33 15 34 16 8 17 5 18 6 19 36 20 7 21
REMARK SMILES IDX 35 22 4 23 3 24 2 25 1 26 17 27 18 28 26 29 19 30 25 31
REMARK SMILES IDX 20 32 21 33 22 34 23 35 24 36
REMARK H PARENT
REMARK Flexibility Score: inf
ROOT
ATOM      1  C   UNL     1       7.462   6.440  -1.455  1.00  0.00    -0.010 A 
ATOM      2  C   UNL     1       7.508   5.148  -2.003  1.00  0.00     0.010 A 
ATOM      3  C   UNL     1       6.464   4.249  -1.808  1.00  0.00     0.009 A 
ATOM      4  C   UNL     1       5.343   4.617  -1.060  1.00  0.00    -0.017 A 
ATOM      5  C   UNL     1       4.298   3.713  -0.865  1.00  0.00     0.009 A 
ATOM      6  C   UNL     1       3.175   4.072  -0.120  1.00  0.00     0.010 A 
ATOM      7  C   UNL     1       3.050   5.351   0.462  1.00  0.00    -0.009 A 
ATOM      8  C   UNL     1       1.915   5.744   1.225  1.00  0.00    -0.010 A 
ATOM      9  C   UNL     1       1.869   7.035   1.775  1.00  0.00     0.010 A 
ATOM     10  C   UNL     1       2.914   7.934   1.582  1.00  0.00     0.009 A 
ATOM     11  C   UNL     1       4.036   7.566   0.834  1.00  0.00    -0.017 A 
ATOM     12  C   UNL     1       5.083   8.469   0.641  1.00  0.00     0.009 A 
ATOM     13  C   UNL     1       6.205   8.110  -0.104  1.00  0.00     0.010 A 
ATOM     14  C   UNL     1       6.328   6.834  -0.689  1.00  0.00    -0.009 A 
ATOM     15  C   UNL     1       5.264   5.911  -0.494  1.00  0.00    -0.002 A 
ATOM     16  C   UNL     1       4.114   6.272   0.267  1.00  0.00    -0.002 A 
ENDROOT
BRANCH   1  17
ATOM     17  C   UNL     1       8.603   7.336  -1.700  1.00  0.00    -0.018 A 
ATOM     18  C   UNL     1      10.793   9.050  -2.188  1.00  0.00     0.119 A 
ATOM     19  C   UNL     1       9.642   9.526  -1.555  1.00  0.00     0.047 A 
ATOM     20  C   UNL     1      10.844   7.715  -2.587  1.00  0.00     0.047 A 
ATOM     21  C   UNL     1       8.557   8.681  -1.312  1.00  0.00     0.012 A 
ATOM     22  C   UNL     1       9.757   6.866  -2.344  1.00  0.00     0.012 A 
BRANCH  18  23
ATOM     23  O   UNL     1      11.769   9.989  -2.369  1.00  0.00    -0.490 OA
BRANCH  23  24
ATOM     24  C   UNL     1      11.427  11.372  -2.281  1.00  0.00     0.257 C 
BRANCH  24  25
ATOM     25  C   UNL     1      11.276  11.952  -3.658  1.00  0.00     0.006 C 
ATOM     26  C   UNL     1      10.109  12.092  -4.302  1.00  0.00     0.007 C 
ENDBRANCH  24  25
ENDBRANCH  23  24
ENDBRANCH  18  23
ENDBRANCH   1  17
BRANCH   8  27
ATOM     27  C   UNL     1       0.773   4.848   1.466  1.00  0.00    -0.018 A 
ATOM     28  C   UNL     1       0.651   4.150   2.676  1.00  0.00     0.012 A 
ATOM     29  C   UNL     1      -0.216   4.669   0.489  1.00  0.00     0.012 A 
ATOM     30  C   UNL     1      -0.435   3.298   2.911  1.00  0.00     0.047 A 
ATOM     31  C   UNL     1      -1.299   3.818   0.725  1.00  0.00     0.047 A 
ATOM     32  C   UNL     1      -1.416   3.131   1.935  1.00  0.00     0.119 A 
BRANCH  32  33
ATOM     33  O   UNL     1      -2.525   2.336   2.032  1.00  0.00    -0.490 OA
BRANCH  33  34
ATOM     34  C   UNL     1      -2.582   1.193   1.182  1.00  0.00     0.257 C 
BRANCH  34  35
ATOM     35  C   UNL     1      -2.688  -0.015   2.062  1.00  0.00     0.006 C 
ATOM     36  C   UNL     1      -1.660  -0.587   2.705  1.00  0.00     0.007 C 
ENDBRANCH  34  35
ENDBRANCH  33  34
ENDBRANCH  32  33
ENDBRANCH   8  27
TORSDOF 8
REMARK SMILES C=CCOc1ccc(-c2ccc3ccc4c(-c5ccc(OCC=C)cc5)ccc5ccc2c3c54)cc1
REMARK SMILES IDX 9 1 10 2 11 3 12 4 13 5 14 6 15 7 16 8 27 9 28 10 29 11
REMARK SMILES IDX 30 12 31 13 32 14 33 15 34 16 8 17 5 18 6 19 36 20 7 21
REMARK SMILES IDX 35 22 4 23 3 24 2 25 1 26 17 27 18 28 26 29 19 30 25 31
REMARK SMILES IDX 20 32 21 33 22 34 23 35 24 36
REMARK H PARENT
REMARK Flexibility Score: inf
ROOT
ATOM      1  C   UNL     1       2.440   7.150  -2.688  1.00  0.00    -0.010 A 
ATOM      2  C   UNL     1       2.180   5.825  -3.074  1.00  0.00     0.010 A 
ATOM      3  C   UNL     1       3.090   5.113  -3.850  1.00  0.00     0.009 A 
ATOM      4  C   UNL     1       4.286   5.706  -4.261  1.00  0.00    -0.017 A 
ATOM      5  C   UNL     1       5.196   4.989  -5.040  1.00  0.00     0.009 A 
ATOM      6  C   UNL     1       6.393   5.573  -5.454  1.00  0.00     0.010 A 
ATOM      7  C   UNL     1       6.730   6.898  -5.107  1.00  0.00    -0.009 A 
ATOM      8  C   UNL     1       7.945   7.518  -5.514  1.00  0.00    -0.010 A 
ATOM      9  C   UNL     1       8.205   8.843  -5.130  1.00  0.00     0.010 A 
ATOM     10  C   UNL     1       7.294   9.556  -4.357  1.00  0.00     0.009 A 
ATOM     11  C   UNL     1       6.096   8.964  -3.945  1.00  0.00    -0.017 A 
ATOM     12  C   UNL     1       5.185   9.681  -3.169  1.00  0.00     0.009 A 
ATOM     13  C   UNL     1       3.988   9.097  -2.754  1.00  0.00     0.010 A 
ATOM     14  C   UNL     1       3.653   7.771  -3.097  1.00  0.00    -0.009 A 
ATOM     15  C   UNL     1       4.579   7.039  -3.889  1.00  0.00    -0.002 A 
ATOM     16  C   UNL     1       5.804   7.630  -4.316  1.00  0.00    -0.002 A 
ENDROOT
BRANCH   1  17
ATOM     17  C   UNL     1       1.431   7.842  -1.870  1.00  0.00    -0.018 A 
ATOM     18  C   UNL     1      -0.508   9.154  -0.292  1.00  0.00     0.119 A 
ATOM     19  C   UNL     1       0.770   9.696  -0.448  1.00  0.00     0.047 A 
ATOM     20  C   UNL     1      -0.813   7.947  -0.919  1.00  0.00     0.047 A 
ATOM     21  C   UNL     1       1.732   9.050  -1.229  1.00  0.00     0.012 A 
ATOM     22  C   UNL     1       0.149   7.298  -1.702  1.00  0.00     0.012 A 
BRANCH  18  23
ATOM     23  O   UNL     1      -1.340   9.888   0.506  1.00  0.00    -0.490 OA
BRANCH  23  24
ATOM     24  C   UNL     1      -2.249   9.209   1.372  1.00  0.00     0.257 C 
BRANCH  24  25
ATOM     25  C   UNL     1      -1.513   8.656   2.558  1.00  0.00     0.006 C 
ATOM     26  C   UNL     1      -1.594   7.386   2.979  1.00  0.00     0.007 C 
ENDBRANCH  24  25
ENDBRANCH  23  24
ENDBRANCH  18  23
ENDBRANCH   1  17
BRANCH   8  27
ATOM     27  C   UNL     1       8.955   6.823  -6.329  1.00  0.00    -0.018 A 
ATOM     28  C   UNL     1       9.917   5.997  -5.729  1.00  0.00     0.012 A 
ATOM     29  C   UNL     1       8.980   6.975  -7.722  1.00  0.00     0.012 A 
ATOM     30  C   UNL     1      10.878   5.333  -6.500  1.00  0.00     0.047 A 
ATOM     31  C   UNL     1       9.940   6.311  -8.489  1.00  0.00     0.047 A 
ATOM     32  C   UNL     1      10.891   5.486  -7.886  1.00  0.00     0.119 A 
BRANCH  32  33
ATOM     33  O   UNL     1      11.768   4.897  -8.755  1.00  0.00    -0.490 OA
BRANCH  33  34
ATOM     34  C   UNL     1      11.521   3.539  -9.106  1.00  0.00     0.257 C 
BRANCH  34  35
ATOM     35  C   UNL     1      10.992   2.849  -7.884  1.00  0.00     0.006 C 
ATOM     36  C   UNL     1      10.492   1.606  -7.862  1.00  0.00     0.007 C 
ENDBRANCH  34  35
ENDBRANCH  33  34
ENDBRANCH  32  33
ENDBRANCH   8  27
TORSDOF 8
ENDMDL
MODEL 15
REMARK VINA RESULT:    -8.335      2.963      7.525
REMARK INTER + INTRA:         -18.441
REMARK INTER:                 -16.368
REMARK INTRA:                  -2.073
REMARK UNBOUND:                -2.309
REMARK SMILES C=CCOc1ccc(-c2ccc3ccc4c(-c5ccc(OCC=C)cc5)ccc5ccc2c3c54)cc1
REMARK SMILES IDX 9 1 10 2 11 3 12 4 13 5 14 6 15 7 16 8 27 9 28 10 29 11
REMARK SMILES IDX 30 12 31 13 32 14 33 15 34 16 8 17 5 18 6 19 36 20 7 21
REMARK SMILES IDX 35 22 4 23 3 24 2 25 1 26 17 27 18 28 26 29 19 30 25 31
REMARK SMILES IDX 20 32 21 33 22 34 23 35 24 36
REMARK H PARENT
REMARK Flexibility Score: inf
ROOT
ATOM      1  C   UNL     1       7.361   5.263  -1.795  1.00  0.00    -0.010 A 
ATOM      2  C   UNL     1       8.046   6.483  -1.681  1.00  0.00     0.010 A 
ATOM      3  C   UNL     1       7.507   7.543  -0.956  1.00  0.00     0.009 A 
ATOM      4  C   UNL     1       6.267   7.410  -0.325  1.00  0.00    -0.017 A 
ATOM      5  C   UNL     1       5.728   8.475   0.399  1.00  0.00     0.009 A 
ATOM      6  C   UNL     1       4.492   8.352   1.033  1.00  0.00     0.010 A 
ATOM      7  C   UNL     1       3.743   7.159   0.969  1.00  0.00    -0.009 A 
ATOM      8  C   UNL     1       2.480   7.004   1.607  1.00  0.00    -0.010 A 
ATOM      9  C   UNL     1       1.794   5.785   1.492  1.00  0.00     0.010 A 
ATOM     10  C   UNL     1       2.332   4.727   0.766  1.00  0.00     0.009 A 
ATOM     11  C   UNL     1       3.572   4.858   0.134  1.00  0.00    -0.017 A 
ATOM     12  C   UNL     1       4.110   3.795  -0.593  1.00  0.00     0.009 A 
ATOM     13  C   UNL     1       5.346   3.918  -1.227  1.00  0.00     0.010 A 
ATOM     14  C   UNL     1       6.097   5.109  -1.158  1.00  0.00    -0.009 A 
ATOM     15  C   UNL     1       5.552   6.194  -0.420  1.00  0.00    -0.002 A 
ATOM     16  C   UNL     1       4.288   6.074   0.230  1.00  0.00    -0.002 A 
ENDROOT
BRANCH   1  17
ATOM     17  C   UNL     1       7.991   4.188  -2.578  1.00  0.00    -0.018 A 
ATOM     18  C   UNL     1       9.186   2.124  -4.089  1.00  0.00     0.119 A 
ATOM     19  C   UNL     1       9.768   3.393  -4.030  1.00  0.00     0.047 A 
ATOM     20  C   UNL     1       7.998   1.891  -3.398  1.00  0.00     0.047 A 
ATOM     21  C   UNL     1       9.180   4.416  -3.283  1.00  0.00     0.012 A 
ATOM     22  C   UNL     1       7.407   2.915  -2.648  1.00  0.00     0.012 A 
BRANCH  18  23
ATOM     23  O   UNL     1       9.864   1.226  -4.864  1.00  0.00    -0.490 OA
BRANCH  23  24
ATOM     24  C   UNL     1      10.079   1.522  -6.244  1.00  0.00     0.257 C 
BRANCH  24  25
ATOM     25  C   UNL     1       8.832   1.235  -7.030  1.00  0.00     0.006 C 
ATOM     26  C   UNL     1       7.925   2.156  -7.384  1.00  0.00     0.007 C 
ENDBRANCH  24  25
ENDBRANCH  23  24
ENDBRANCH  18  23
ENDBRANCH   1  17
BRANCH   8  27
ATOM     27  C   UNL     1       1.853   8.079   2.394  1.00  0.00    -0.018 A 
ATOM     28  C   UNL     1       1.039   9.039   1.776  1.00  0.00     0.012 A 
ATOM     29  C   UNL     1       2.061   8.170   3.776  1.00  0.00     0.012 A 
ATOM     30  C   UNL     1       0.439  10.062   2.520  1.00  0.00     0.047 A 
ATOM     31  C   UNL     1       1.462   9.191   4.517  1.00  0.00     0.047 A 
ATOM     32  C   UNL     1       0.648  10.140   3.896  1.00  0.00     0.119 A 
BRANCH  32  33
ATOM     33  O   UNL     1       0.124  11.081   4.740  1.00  0.00    -0.490 OA
BRANCH  33  34
ATOM     34  C   UNL     1      -0.034  12.400   4.224  1.00  0.00     0.257 C 
BRANCH  34  35
ATOM     35  C   UNL     1       1.298  13.081   4.318  1.00  0.00     0.006 C 
ATOM     36  C   UNL     1       2.019  13.502   3.269  1.00  0.00     0.007 C 
ENDBRANCH  34  35
ENDBRANCH  33  34
ENDBRANCH  32  33
ENDBRANCH   8  27
TORSDOF 8
REMARK SMILES C=CCOc1ccc(-c2ccc3ccc4c(-c5ccc(OCC=C)cc5)ccc5ccc2c3c54)cc1
REMARK SMILES IDX 9 1 10 2 11 3 12 4 13 5 14 6 15 7 16 8 27 9 28 10 29 11
REMARK SMILES IDX 30 12 31 13 32 14 33 15 34 16 8 17 5 18 6 19 36 20 7 21
REMARK SMILES IDX 35 22 4 23 3 24 2 25 1 26 17 27 18 28 26 29 19 30 25 31
REMARK SMILES IDX 20 32 21 33 22 34 23 35 24 36
REMARK H PARENT
REMARK Flexibility Score: inf
ROOT
ATOM      1  C   UNL     1       1.818   7.585  -1.975  1.00  0.00    -0.010 A 
ATOM      2  C   UNL     1       2.072   8.908  -1.580  1.00  0.00     0.010 A 
ATOM      3  C   UNL     1       3.233   9.565  -1.978  1.00  0.00     0.009 A 
ATOM      4  C   UNL     1       4.172   8.916  -2.783  1.00  0.00    -0.017 A 
ATOM      5  C   UNL     1       5.337   9.577  -3.179  1.00  0.00     0.009 A 
ATOM      6  C   UNL     1       6.279   8.936  -3.983  1.00  0.00     0.010 A 
ATOM      7  C   UNL     1       6.098   7.610  -4.426  1.00  0.00    -0.009 A 
ATOM      8  C   UNL     1       7.042   6.933  -5.248  1.00  0.00    -0.010 A 
ATOM      9  C   UNL     1       6.789   5.610  -5.642  1.00  0.00     0.010 A 
ATOM     10  C   UNL     1       5.629   4.953  -5.243  1.00  0.00     0.009 A 
ATOM     11  C   UNL     1       4.689   5.601  -4.437  1.00  0.00    -0.017 A 
ATOM     12  C   UNL     1       3.526   4.940  -4.038  1.00  0.00     0.009 A 
ATOM     13  C   UNL     1       2.583   5.580  -3.234  1.00  0.00     0.010 A 
ATOM     14  C   UNL     1       2.763   6.908  -2.796  1.00  0.00    -0.009 A 
ATOM     15  C   UNL     1       3.946   7.583  -3.200  1.00  0.00    -0.002 A 
ATOM     16  C   UNL     1       4.915   6.935  -4.021  1.00  0.00    -0.002 A 
ENDROOT
BRANCH   1  17
ATOM     17  C   UNL     1       0.571   6.955  -1.515  1.00  0.00    -0.018 A 
ATOM     18  C   UNL     1      -1.814   5.734  -0.622  1.00  0.00     0.119 A 
ATOM     19  C   UNL     1      -1.616   7.108  -0.469  1.00  0.00     0.047 A 
ATOM     20  C   UNL     1      -0.812   4.967  -1.215  1.00  0.00     0.047 A 
ATOM     21  C   UNL     1      -0.438   7.716  -0.910  1.00  0.00     0.012 A 
ATOM     22  C   UNL     1       0.370   5.574  -1.658  1.00  0.00     0.012 A 
BRANCH  18  23
ATOM     23  O   UNL     1      -3.006   5.277  -0.137  1.00  0.00    -0.490 OA
BRANCH  23  24
ATOM     24  C   UNL     1      -3.022   4.102   0.675  1.00  0.00     0.257 C 
BRANCH  24  25
ATOM     25  C   UNL     1      -2.661   4.451   2.090  1.00  0.00     0.006 C 
ATOM     26  C   UNL     1      -3.092   5.542   2.738  1.00  0.00     0.007 C 
ENDBRANCH  24  25
ENDBRANCH  23  24
ENDBRANCH  18  23
ENDBRANCH   1  17
BRANCH   8  27
ATOM     27  C   UNL     1       8.287   7.567  -5.711  1.00  0.00    -0.018 A 
ATOM     28  C   UNL     1       9.417   7.619  -4.883  1.00  0.00     0.012 A 
ATOM     29  C   UNL     1       8.368   8.139  -6.988  1.00  0.00     0.012 A 
ATOM     30  C   UNL     1      10.605   8.219  -5.319  1.00  0.00     0.047 A 
ATOM     31  C   UNL     1       9.554   8.737  -7.422  1.00  0.00     0.047 A 
ATOM     32  C   UNL     1      10.677   8.780  -6.594  1.00  0.00     0.119 A 
BRANCH  32  33
ATOM     33  O   UNL     1      11.769   9.392  -7.145  1.00  0.00    -0.490 OA
BRANCH  33  34
ATOM     34  C   UNL     1      11.604  10.737  -7.589  1.00  0.00     0.257 C 
BRANCH  34  35
ATOM     35  C   UNL     1      11.517  11.603  -6.368  1.00  0.00     0.006 C 
ATOM     36  C   UNL     1      10.554  12.507  -6.138  1.00  0.00     0.007 C 
ENDBRANCH  34  35
ENDBRANCH  33  34
ENDBRANCH  32  33
ENDBRANCH   8  27
TORSDOF 8
ENDMDL
MODEL 16
REMARK VINA RESULT:    -8.330      2.472     10.004
REMARK INTER + INTRA:         -18.430
REMARK INTER:                 -16.919
REMARK INTRA:                  -1.511
REMARK UNBOUND:                -2.309
REMARK SMILES C=CCOc1ccc(-c2ccc3ccc4c(-c5ccc(OCC=C)cc5)ccc5ccc2c3c54)cc1
REMARK SMILES IDX 9 1 10 2 11 3 12 4 13 5 14 6 15 7 16 8 27 9 28 10 29 11
REMARK SMILES IDX 30 12 31 13 32 14 33 15 34 16 8 17 5 18 6 19 36 20 7 21
REMARK SMILES IDX 35 22 4 23 3 24 2 25 1 26 17 27 18 28 26 29 19 30 25 31
REMARK SMILES IDX 20 32 21 33 22 34 23 35 24 36
REMARK H PARENT
REMARK Flexibility Score: inf
ROOT
ATOM      1  C   UNL     1       2.090   6.529  -2.355  1.00  0.00    -0.010 A 
ATOM      2  C   UNL     1       1.959   7.872  -2.745  1.00  0.00     0.010 A 
ATOM      3  C   UNL     1       2.930   8.490  -3.527  1.00  0.00     0.009 A 
ATOM      4  C   UNL     1       4.060   7.781  -3.944  1.00  0.00    -0.017 A 
ATOM      5  C   UNL     1       5.033   8.403  -4.727  1.00  0.00     0.009 A 
ATOM      6  C   UNL     1       6.164   7.703  -5.147  1.00  0.00     0.010 A 
ATOM      7  C   UNL     1       6.369   6.352  -4.801  1.00  0.00    -0.009 A 
ATOM      8  C   UNL     1       7.512   5.613  -5.217  1.00  0.00    -0.010 A 
ATOM      9  C   UNL     1       7.645   4.271  -4.826  1.00  0.00     0.010 A 
ATOM     10  C   UNL     1       6.675   3.654  -4.042  1.00  0.00     0.009 A 
ATOM     11  C   UNL     1       5.544   4.363  -3.625  1.00  0.00    -0.017 A 
ATOM     12  C   UNL     1       4.573   3.741  -2.839  1.00  0.00     0.009 A 
ATOM     13  C   UNL     1       3.442   4.442  -2.420  1.00  0.00     0.010 A 
ATOM     14  C   UNL     1       3.235   5.791  -2.769  1.00  0.00    -0.009 A 
ATOM     15  C   UNL     1       4.223   6.426  -3.569  1.00  0.00    -0.002 A 
ATOM     16  C   UNL     1       5.381   5.717  -4.001  1.00  0.00    -0.002 A 
ENDROOT
BRANCH   1  17
ATOM     17  C   UNL     1       1.025   5.944  -1.526  1.00  0.00    -0.018 A 
ATOM     18  C   UNL     1      -1.030   4.821   0.052  1.00  0.00     0.119 A 
ATOM     19  C   UNL     1       0.195   4.166  -0.095  1.00  0.00     0.047 A 
ATOM     20  C   UNL     1      -1.230   6.037  -0.600  1.00  0.00     0.047 A 
ATOM     21  C   UNL     1       1.214   4.718  -0.875  1.00  0.00     0.012 A 
ATOM     22  C   UNL     1      -0.209   6.593  -1.382  1.00  0.00     0.012 A 
BRANCH  18  23
ATOM     23  O   UNL     1      -1.935   4.161   0.834  1.00  0.00    -0.490 OA
BRANCH  23  24
ATOM     24  C   UNL     1      -2.154   4.606   2.172  1.00  0.00     0.257 C 
BRANCH  24  25
ATOM     25  C   UNL     1      -0.948   5.351   2.669  1.00  0.00     0.006 C 
ATOM     26  C   UNL     1      -0.978   6.581   3.199  1.00  0.00     0.007 C 
ENDBRANCH  24  25
ENDBRANCH  23  24
ENDBRANCH  18  23
ENDBRANCH   1  17
BRANCH   8  27
ATOM     27  C   UNL     1       8.575   6.200  -6.050  1.00  0.00    -0.018 A 
ATOM     28  C   UNL     1       8.660   5.903  -7.418  1.00  0.00     0.012 A 
ATOM     29  C   UNL     1       9.528   7.063  -5.493  1.00  0.00     0.012 A 
ATOM     30  C   UNL     1       9.667   6.460  -8.215  1.00  0.00     0.047 A 
ATOM     31  C   UNL     1      10.532   7.618  -6.290  1.00  0.00     0.047 A 
ATOM     32  C   UNL     1      10.607   7.323  -7.652  1.00  0.00     0.119 A 
BRANCH  32  33
ATOM     33  O   UNL     1      11.637   7.935  -8.312  1.00  0.00    -0.490 OA
BRANCH  33  34
ATOM     34  C   UNL     1      11.706   9.357  -8.232  1.00  0.00     0.257 C 
BRANCH  34  35
ATOM     35  C   UNL     1      10.601   9.906  -9.083  1.00  0.00     0.006 C 
ATOM     36  C   UNL     1       9.888  11.005  -8.798  1.00  0.00     0.007 C 
ENDBRANCH  34  35
ENDBRANCH  33  34
ENDBRANCH  32  33
ENDBRANCH   8  27
TORSDOF 8
REMARK SMILES C=CCOc1ccc(-c2ccc3ccc4c(-c5ccc(OCC=C)cc5)ccc5ccc2c3c54)cc1
REMARK SMILES IDX 9 1 10 2 11 3 12 4 13 5 14 6 15 7 16 8 27 9 28 10 29 11
REMARK SMILES IDX 30 12 31 13 32 14 33 15 34 16 8 17 5 18 6 19 36 20 7 21
REMARK SMILES IDX 35 22 4 23 3 24 2 25 1 26 17 27 18 28 26 29 19 30 25 31
REMARK SMILES IDX 20 32 21 33 22 34 23 35 24 36
REMARK H PARENT
REMARK Flexibility Score: inf
ROOT
ATOM      1  C   UNL     1       7.935   6.465  -1.490  1.00  0.00    -0.010 A 
ATOM      2  C   UNL     1       8.205   7.710  -2.081  1.00  0.00     0.010 A 
ATOM      3  C   UNL     1       7.317   8.773  -1.951  1.00  0.00     0.009 A 
ATOM      4  C   UNL     1       6.132   8.622  -1.225  1.00  0.00    -0.017 A 
ATOM      5  C   UNL     1       5.242   9.689  -1.098  1.00  0.00     0.009 A 
ATOM      6  C   UNL     1       4.058   9.546  -0.375  1.00  0.00     0.010 A 
ATOM      7  C   UNL     1       3.714   8.330   0.251  1.00  0.00    -0.009 A 
ATOM      8  C   UNL     1       2.514   8.158   0.996  1.00  0.00    -0.010 A 
ATOM      9  C   UNL     1       2.242   6.913   1.585  1.00  0.00     0.010 A 
ATOM     10  C   UNL     1       3.129   5.849   1.454  1.00  0.00     0.009 A 
ATOM     11  C   UNL     1       4.315   6.000   0.727  1.00  0.00    -0.017 A 
ATOM     12  C   UNL     1       5.203   4.932   0.597  1.00  0.00     0.009 A 
ATOM     13  C   UNL     1       6.387   5.074  -0.125  1.00  0.00     0.010 A 
ATOM     14  C   UNL     1       6.733   6.291  -0.747  1.00  0.00    -0.009 A 
ATOM     15  C   UNL     1       5.830   7.380  -0.617  1.00  0.00    -0.002 A 
ATOM     16  C   UNL     1       4.617   7.241   0.120  1.00  0.00    -0.002 A 
ENDROOT
BRANCH   1  17
ATOM     17  C   UNL     1       8.919   5.387  -1.672  1.00  0.00    -0.018 A 
ATOM     18  C   UNL     1      10.795   3.306  -2.024  1.00  0.00     0.119 A 
ATOM     19  C   UNL     1      10.942   4.520  -2.699  1.00  0.00     0.047 A 
ATOM     20  C   UNL     1       9.701   3.129  -1.178  1.00  0.00     0.047 A 
ATOM     21  C   UNL     1      10.016   5.552  -2.526  1.00  0.00     0.012 A 
ATOM     22  C   UNL     1       8.772   4.162  -1.004  1.00  0.00     0.012 A 
BRANCH  18  23
ATOM     23  O   UNL     1      11.769   2.387  -2.295  1.00  0.00    -0.490 OA
BRANCH  23  24
ATOM     24  C   UNL     1      11.411   1.168  -2.947  1.00  0.00     0.257 C 
BRANCH  24  25
ATOM     25  C   UNL     1      11.009   1.444  -4.367  1.00  0.00     0.006 C 
ATOM     26  C   UNL     1       9.753   1.374  -4.830  1.00  0.00     0.007 C 
ENDBRANCH  24  25
ENDBRANCH  23  24
ENDBRANCH  18  23
ENDBRANCH   1  17
BRANCH   8  27
ATOM     27  C   UNL     1       1.533   9.239   1.180  1.00  0.00    -0.018 A 
ATOM     28  C   UNL     1       1.527  10.011   2.350  1.00  0.00     0.012 A 
ATOM     29  C   UNL     1       0.579   9.517   0.191  1.00  0.00     0.012 A 
ATOM     30  C   UNL     1       0.597  11.043   2.529  1.00  0.00     0.047 A 
ATOM     31  C   UNL     1      -0.348  10.547   0.371  1.00  0.00     0.047 A 
ATOM     32  C   UNL     1      -0.344  11.315   1.537  1.00  0.00     0.119 A 
BRANCH  32  33
ATOM     33  O   UNL     1      -1.303  12.289   1.580  1.00  0.00    -0.490 OA
BRANCH  33  34
ATOM     34  C   UNL     1      -1.058  13.477   0.831  1.00  0.00     0.257 C 
BRANCH  34  35
ATOM     35  C   UNL     1      -2.296  13.771   0.039  1.00  0.00     0.006 C 
ATOM     36  C   UNL     1      -3.033  12.852  -0.600  1.00  0.00     0.007 C 
ENDBRANCH  34  35
ENDBRANCH  33  34
ENDBRANCH  32  33
ENDBRANCH   8  27
TORSDOF 8
ENDMDL
MODEL 17
REMARK VINA RESULT:    -8.183      2.466      6.904
REMARK INTER + INTRA:         -18.147
REMARK INTER:                 -16.625
REMARK INTRA:                  -1.522
REMARK UNBOUND:                -2.309
REMARK SMILES C=CCOc1ccc(-c2ccc3ccc4c(-c5ccc(OCC=C)cc5)ccc5ccc2c3c54)cc1
REMARK SMILES IDX 9 1 10 2 11 3 12 4 13 5 14 6 15 7 16 8 27 9 28 10 29 11
REMARK SMILES IDX 30 12 31 13 32 14 33 15 34 16 8 17 5 18 6 19 36 20 7 21
REMARK SMILES IDX 35 22 4 23 3 24 2 25 1 26 17 27 18 28 26 29 19 30 25 31
REMARK SMILES IDX 20 32 21 33 22 34 23 35 24 36
REMARK H PARENT
REMARK Flexibility Score: inf
ROOT
ATOM      1  C   UNL     1       7.911   6.560  -1.392  1.00  0.00    -0.010 A 
ATOM      2  C   UNL     1       8.153   7.812  -1.980  1.00  0.00     0.010 A 
ATOM      3  C   UNL     1       7.229   8.847  -1.868  1.00  0.00     0.009 A 
ATOM      4  C   UNL     1       6.037   8.658  -1.163  1.00  0.00    -0.017 A 
ATOM      5  C   UNL     1       5.111   9.697  -1.054  1.00  0.00     0.009 A 
ATOM      6  C   UNL     1       3.919   9.517  -0.353  1.00  0.00     0.010 A 
ATOM      7  C   UNL     1       3.602   8.292   0.268  1.00  0.00    -0.009 A 
ATOM      8  C   UNL     1       2.395   8.082   0.992  1.00  0.00    -0.010 A 
ATOM      9  C   UNL     1       2.152   6.830   1.578  1.00  0.00     0.010 A 
ATOM     10  C   UNL     1       3.075   5.794   1.464  1.00  0.00     0.009 A 
ATOM     11  C   UNL     1       4.268   5.982   0.759  1.00  0.00    -0.017 A 
ATOM     12  C   UNL     1       5.192   4.942   0.647  1.00  0.00     0.009 A 
ATOM     13  C   UNL     1       6.384   5.122  -0.054  1.00  0.00     0.010 A 
ATOM     14  C   UNL     1       6.702   6.349  -0.670  1.00  0.00    -0.009 A 
ATOM     15  C   UNL     1       5.763   7.409  -0.559  1.00  0.00    -0.002 A 
ATOM     16  C   UNL     1       4.542   7.232   0.156  1.00  0.00    -0.002 A 
ENDROOT
BRANCH   1  17
ATOM     17  C   UNL     1       8.932   5.513  -1.554  1.00  0.00    -0.018 A 
ATOM     18  C   UNL     1      10.904   3.514  -1.857  1.00  0.00     0.119 A 
ATOM     19  C   UNL     1       9.698   3.234  -1.208  1.00  0.00     0.047 A 
ATOM     20  C   UNL     1      11.127   4.800  -2.346  1.00  0.00     0.047 A 
ATOM     21  C   UNL     1       8.721   4.221  -1.057  1.00  0.00     0.012 A 
ATOM     22  C   UNL     1      10.148   5.791  -2.196  1.00  0.00     0.012 A 
BRANCH  18  23
ATOM     23  O   UNL     1      11.769   2.459  -1.923  1.00  0.00    -0.490 OA
BRANCH  23  24
ATOM     24  C   UNL     1      11.248   1.130  -1.892  1.00  0.00     0.257 C 
BRANCH  24  25
ATOM     25  C   UNL     1      10.882   0.689  -3.280  1.00  0.00     0.006 C 
ATOM     26  C   UNL     1       9.634   0.426  -3.691  1.00  0.00     0.007 C 
ENDBRANCH  24  25
ENDBRANCH  23  24
ENDBRANCH  18  23
ENDBRANCH   1  17
BRANCH   8  27
ATOM     27  C   UNL     1       1.376   9.132   1.156  1.00  0.00    -0.018 A 
ATOM     28  C   UNL     1       1.129   9.701   2.413  1.00  0.00     0.012 A 
ATOM     29  C   UNL     1       0.628   9.582   0.060  1.00  0.00     0.012 A 
ATOM     30  C   UNL     1       0.163  10.702   2.574  1.00  0.00     0.047 A 
ATOM     31  C   UNL     1      -0.335  10.580   0.222  1.00  0.00     0.047 A 
ATOM     32  C   UNL     1      -0.573  11.146   1.476  1.00  0.00     0.119 A 
BRANCH  32  33
ATOM     33  O   UNL     1      -1.540  12.113   1.491  1.00  0.00    -0.490 OA
BRANCH  33  34
ATOM     34  C   UNL     1      -1.115  13.461   1.304  1.00  0.00     0.257 C 
BRANCH  34  35
ATOM     35  C   UNL     1      -1.044  14.099   2.659  1.00  0.00     0.006 C 
ATOM     36  C   UNL     1      -1.357  13.489   3.811  1.00  0.00     0.007 C 
ENDBRANCH  34  35
ENDBRANCH  33  34
ENDBRANCH  32  33
ENDBRANCH   8  27
TORSDOF 8
REMARK SMILES C=CCOc1ccc(-c2ccc3ccc4c(-c5ccc(OCC=C)cc5)ccc5ccc2c3c54)cc1
REMARK SMILES IDX 9 1 10 2 11 3 12 4 13 5 14 6 15 7 16 8 27 9 28 10 29 11
REMARK SMILES IDX 30 12 31 13 32 14 33 15 34 16 8 17 5 18 6 19 36 20 7 21
REMARK SMILES IDX 35 22 4 23 3 24 2 25 1 26 17 27 18 28 26 29 19 30 25 31
REMARK SMILES IDX 20 32 21 33 22 34 23 35 24 36
REMARK H PARENT
REMARK Flexibility Score: inf
ROOT
ATOM      1  C   UNL     1       2.103   6.495  -2.419  1.00  0.00    -0.010 A 
ATOM      2  C   UNL     1       1.984   7.828  -2.843  1.00  0.00     0.010 A 
ATOM      3  C   UNL     1       2.981   8.429  -3.607  1.00  0.00     0.009 A 
ATOM      4  C   UNL     1       4.125   7.713  -3.968  1.00  0.00    -0.017 A 
ATOM      5  C   UNL     1       5.123   8.319  -4.732  1.00  0.00     0.009 A 
ATOM      6  C   UNL     1       6.269   7.611  -5.097  1.00  0.00     0.010 A 
ATOM      7  C   UNL     1       6.463   6.268  -4.713  1.00  0.00    -0.009 A 
ATOM      8  C   UNL     1       7.621   5.522  -5.073  1.00  0.00    -0.010 A 
ATOM      9  C   UNL     1       7.741   4.190  -4.647  1.00  0.00     0.010 A 
ATOM     10  C   UNL     1       6.746   3.589  -3.882  1.00  0.00     0.009 A 
ATOM     11  C   UNL     1       5.601   4.305  -3.520  1.00  0.00    -0.017 A 
ATOM     12  C   UNL     1       4.603   3.701  -2.754  1.00  0.00     0.009 A 
ATOM     13  C   UNL     1       3.458   4.408  -2.389  1.00  0.00     0.010 A 
ATOM     14  C   UNL     1       3.262   5.749  -2.777  1.00  0.00    -0.009 A 
ATOM     15  C   UNL     1       4.276   6.368  -3.556  1.00  0.00    -0.002 A 
ATOM     16  C   UNL     1       5.449   5.650  -3.932  1.00  0.00    -0.002 A 
ENDROOT
BRANCH   1  17
ATOM     17  C   UNL     1       1.011   5.927  -1.613  1.00  0.00    -0.018 A 
ATOM     18  C   UNL     1      -1.075   4.837  -0.053  1.00  0.00     0.119 A 
ATOM     19  C   UNL     1      -1.278   5.997  -0.804  1.00  0.00     0.047 A 
ATOM     20  C   UNL     1       0.178   4.226  -0.075  1.00  0.00     0.047 A 
ATOM     21  C   UNL     1      -0.248   6.539  -1.578  1.00  0.00     0.012 A 
ATOM     22  C   UNL     1       1.212   4.768  -0.850  1.00  0.00     0.012 A 
BRANCH  18  23
ATOM     23  O   UNL     1      -2.165   4.428   0.661  1.00  0.00    -0.490 OA
BRANCH  23  24
ATOM     24  C   UNL     1      -2.795   5.346   1.554  1.00  0.00     0.257 C 
BRANCH  24  25
ATOM     25  C   UNL     1      -2.016   5.434   2.835  1.00  0.00     0.006 C 
ATOM     26  C   UNL     1      -1.262   6.481   3.196  1.00  0.00     0.007 C 
ENDBRANCH  24  25
ENDBRANCH  23  24
ENDBRANCH  18  23
ENDBRANCH   1  17
BRANCH   8  27
ATOM     27  C   UNL     1       8.710   6.091  -5.883  1.00  0.00    -0.018 A 
ATOM     28  C   UNL     1       9.765   6.789  -5.277  1.00  0.00     0.012 A 
ATOM     29  C   UNL     1       8.714   5.953  -7.277  1.00  0.00     0.012 A 
ATOM     30  C   UNL     1      10.805   7.330  -6.043  1.00  0.00     0.047 A 
ATOM     31  C   UNL     1       9.752   6.494  -8.040  1.00  0.00     0.047 A 
ATOM     32  C   UNL     1      10.802   7.182  -7.429  1.00  0.00     0.119 A 
BRANCH  32  33
ATOM     33  O   UNL     1      11.751   7.656  -8.293  1.00  0.00    -0.490 OA
BRANCH  33  34
ATOM     34  C   UNL     1      11.390   8.770  -9.106  1.00  0.00     0.257 C 
BRANCH  34  35
ATOM     35  C   UNL     1      11.213   9.949  -8.198  1.00  0.00     0.006 C 
ATOM     36  C   UNL     1      10.193  10.816  -8.257  1.00  0.00     0.007 C 
ENDBRANCH  34  35
ENDBRANCH  33  34
ENDBRANCH  32  33
ENDBRANCH   8  27
TORSDOF 8
ENDMDL
MODEL 18
REMARK VINA RESULT:    -8.158      3.668      6.375
REMARK INTER + INTRA:         -18.097
REMARK INTER:                 -16.542
REMARK INTRA:                  -1.555
REMARK UNBOUND:                -2.309
REMARK SMILES C=CCOc1ccc(-c2ccc3ccc4c(-c5ccc(OCC=C)cc5)ccc5ccc2c3c54)cc1
REMARK SMILES IDX 9 1 10 2 11 3 12 4 13 5 14 6 15 7 16 8 27 9 28 10 29 11
REMARK SMILES IDX 30 12 31 13 32 14 33 15 34 16 8 17 5 18 6 19 36 20 7 21
REMARK SMILES IDX 35 22 4 23 3 24 2 25 1 26 17 27 18 28 26 29 19 30 25 31
REMARK SMILES IDX 20 32 21 33 22 34 23 35 24 36
REMARK H PARENT
REMARK Flexibility Score: inf
ROOT
ATOM      1  C   UNL     1       3.315   7.175   0.949  1.00  0.00    -0.010 A 
ATOM      2  C   UNL     1       2.883   8.473   0.630  1.00  0.00     0.010 A 
ATOM      3  C   UNL     1       3.646   9.304  -0.184  1.00  0.00     0.009 A 
ATOM      4  C   UNL     1       4.865   8.860  -0.704  1.00  0.00    -0.017 A 
ATOM      5  C   UNL     1       5.630   9.696  -1.519  1.00  0.00     0.009 A 
ATOM      6  C   UNL     1       6.848   9.261  -2.041  1.00  0.00     0.010 A 
ATOM      7  C   UNL     1       7.351   7.972  -1.771  1.00  0.00    -0.009 A 
ATOM      8  C   UNL     1       8.590   7.502  -2.293  1.00  0.00    -0.010 A 
ATOM      9  C   UNL     1       9.024   6.206  -1.973  1.00  0.00     0.010 A 
ATOM     10  C   UNL     1       8.261   5.375  -1.157  1.00  0.00     0.009 A 
ATOM     11  C   UNL     1       7.041   5.819  -0.637  1.00  0.00    -0.017 A 
ATOM     12  C   UNL     1       6.278   4.984   0.180  1.00  0.00     0.009 A 
ATOM     13  C   UNL     1       5.060   5.419   0.703  1.00  0.00     0.010 A 
ATOM     14  C   UNL     1       4.555   6.706   0.429  1.00  0.00    -0.009 A 
ATOM     15  C   UNL     1       5.330   7.558  -0.402  1.00  0.00    -0.002 A 
ATOM     16  C   UNL     1       6.576   7.120  -0.939  1.00  0.00    -0.002 A 
ENDROOT
BRANCH   1  17
ATOM     17  C   UNL     1       2.457   6.355   1.817  1.00  0.00    -0.018 A 
ATOM     18  C   UNL     1       0.797   4.793   3.484  1.00  0.00     0.119 A 
ATOM     19  C   UNL     1       1.198   4.320   2.233  1.00  0.00     0.047 A 
ATOM     20  C   UNL     1       1.219   6.055   3.898  1.00  0.00     0.047 A 
ATOM     21  C   UNL     1       2.020   5.090   1.405  1.00  0.00     0.012 A 
ATOM     22  C   UNL     1       2.043   6.829   3.070  1.00  0.00     0.012 A 
BRANCH  18  23
ATOM     23  O   UNL     1      -0.012   3.939   4.179  1.00  0.00    -0.490 OA
BRANCH  23  24
ATOM     24  C   UNL     1      -0.741   4.432   5.303  1.00  0.00     0.257 C 
BRANCH  24  25
ATOM     25  C   UNL     1      -2.060   3.722   5.410  1.00  0.00     0.006 C 
ATOM     26  C   UNL     1      -2.355   2.569   4.795  1.00  0.00     0.007 C 
ENDBRANCH  24  25
ENDBRANCH  23  24
ENDBRANCH  18  23
ENDBRANCH   1  17
BRANCH   8  27
ATOM     27  C   UNL     1       9.445   8.323  -3.165  1.00  0.00    -0.018 A 
ATOM     28  C   UNL     1      10.841   8.294  -3.033  1.00  0.00     0.012 A 
ATOM     29  C   UNL     1       8.883   9.155  -4.142  1.00  0.00     0.012 A 
ATOM     30  C   UNL     1      11.659   9.072  -3.861  1.00  0.00     0.047 A 
ATOM     31  C   UNL     1       9.701   9.931  -4.967  1.00  0.00     0.047 A 
ATOM     32  C   UNL     1      11.091   9.893  -4.834  1.00  0.00     0.119 A 
BRANCH  32  33
ATOM     33  O   UNL     1      11.769  10.699  -5.707  1.00  0.00    -0.490 OA
BRANCH  33  34
ATOM     34  C   UNL     1      11.070  11.828  -6.225  1.00  0.00     0.257 C 
BRANCH  34  35
ATOM     35  C   UNL     1      11.465  13.016  -5.401  1.00  0.00     0.006 C 
ATOM     36  C   UNL     1      10.715  13.560  -4.432  1.00  0.00     0.007 C 
ENDBRANCH  34  35
ENDBRANCH  33  34
ENDBRANCH  32  33
ENDBRANCH   8  27
TORSDOF 8
REMARK SMILES C=CCOc1ccc(-c2ccc3ccc4c(-c5ccc(OCC=C)cc5)ccc5ccc2c3c54)cc1
REMARK SMILES IDX 9 1 10 2 11 3 12 4 13 5 14 6 15 7 16 8 27 9 28 10 29 11
REMARK SMILES IDX 30 12 31 13 32 14 33 15 34 16 8 17 5 18 6 19 36 20 7 21
REMARK SMILES IDX 35 22 4 23 3 24 2 25 1 26 17 27 18 28 26 29 19 30 25 31
REMARK SMILES IDX 20 32 21 33 22 34 23 35 24 36
REMARK H PARENT
REMARK Flexibility Score: inf
ROOT
ATOM      1  C   UNL     1       2.040   6.944  -2.500  1.00  0.00    -0.010 A 
ATOM      2  C   UNL     1       2.114   8.203  -3.119  1.00  0.00     0.010 A 
ATOM      3  C   UNL     1       3.190   8.538  -3.936  1.00  0.00     0.009 A 
ATOM      4  C   UNL     1       4.222   7.623  -4.159  1.00  0.00    -0.017 A 
ATOM      5  C   UNL     1       5.300   7.962  -4.978  1.00  0.00     0.009 A 
ATOM      6  C   UNL     1       6.334   7.055  -5.206  1.00  0.00     0.010 A 
ATOM      7  C   UNL     1       6.334   5.770  -4.624  1.00  0.00    -0.009 A 
ATOM      8  C   UNL     1       7.375   4.823  -4.841  1.00  0.00    -0.010 A 
ATOM      9  C   UNL     1       7.302   3.566  -4.222  1.00  0.00     0.010 A 
ATOM     10  C   UNL     1       6.228   3.232  -3.403  1.00  0.00     0.009 A 
ATOM     11  C   UNL     1       5.195   4.147  -3.179  1.00  0.00    -0.017 A 
ATOM     12  C   UNL     1       4.118   3.809  -2.358  1.00  0.00     0.009 A 
ATOM     13  C   UNL     1       3.084   4.717  -2.130  1.00  0.00     0.010 A 
ATOM     14  C   UNL     1       3.083   5.999  -2.715  1.00  0.00    -0.009 A 
ATOM     15  C   UNL     1       4.178   6.346  -3.551  1.00  0.00    -0.002 A 
ATOM     16  C   UNL     1       5.239   5.423  -3.788  1.00  0.00    -0.002 A 
ENDROOT
BRANCH   1  17
ATOM     17  C   UNL     1       0.875   6.662  -1.648  1.00  0.00    -0.018 A 
ATOM     18  C   UNL     1      -1.370   6.132  -0.019  1.00  0.00     0.119 A 
ATOM     19  C   UNL     1      -0.820   5.130  -0.823  1.00  0.00     0.047 A 
ATOM     20  C   UNL     1      -0.802   7.404  -0.039  1.00  0.00     0.047 A 
ATOM     21  C   UNL     1       0.291   5.388  -1.630  1.00  0.00     0.012 A 
ATOM     22  C   UNL     1       0.313   7.665  -0.847  1.00  0.00     0.012 A 
BRANCH  18  23
ATOM     23  O   UNL     1      -2.458   5.739   0.708  1.00  0.00    -0.490 OA
BRANCH  23  24
ATOM     24  C   UNL     1      -2.309   5.496   2.106  1.00  0.00     0.257 C 
BRANCH  24  25
ATOM     25  C   UNL     1      -2.928   6.616   2.891  1.00  0.00     0.006 C 
ATOM     26  C   UNL     1      -2.364   7.203   3.955  1.00  0.00     0.007 C 
ENDBRANCH  24  25
ENDBRANCH  23  24
ENDBRANCH  18  23
ENDBRANCH   1  17
BRANCH   8  27
ATOM     27  C   UNL     1       8.538   5.107  -5.698  1.00  0.00    -0.018 A 
ATOM     28  C   UNL     1       9.783   5.421  -5.135  1.00  0.00     0.012 A 
ATOM     29  C   UNL     1       8.424   5.075  -7.094  1.00  0.00     0.012 A 
ATOM     30  C   UNL     1      10.893   5.690  -5.946  1.00  0.00     0.047 A 
ATOM     31  C   UNL     1       9.533   5.344  -7.901  1.00  0.00     0.047 A 
ATOM     32  C   UNL     1      10.771   5.650  -7.334  1.00  0.00     0.119 A 
BRANCH  32  33
ATOM     33  O   UNL     1      11.769   5.888  -8.239  1.00  0.00    -0.490 OA
BRANCH  33  34
ATOM     34  C   UNL     1      11.692   7.100  -8.986  1.00  0.00     0.257 C 
BRANCH  34  35
ATOM     35  C   UNL     1      11.086   8.139  -8.092  1.00  0.00     0.006 C 
ATOM     36  C   UNL     1       9.994   8.859  -8.385  1.00  0.00     0.007 C 
ENDBRANCH  34  35
ENDBRANCH  33  34
ENDBRANCH  32  33
ENDBRANCH   8  27
TORSDOF 8
ENDMDL
MODEL 19
REMARK VINA RESULT:    -7.875      1.432     10.481
REMARK INTER + INTRA:         -17.551
REMARK INTER:                 -15.263
REMARK INTRA:                  -2.288
REMARK UNBOUND:                -2.309
REMARK SMILES C=CCOc1ccc(-c2ccc3ccc4c(-c5ccc(OCC=C)cc5)ccc5ccc2c3c54)cc1
REMARK SMILES IDX 9 1 10 2 11 3 12 4 13 5 14 6 15 7 16 8 27 9 28 10 29 11
REMARK SMILES IDX 30 12 31 13 32 14 33 15 34 16 8 17 5 18 6 19 36 20 7 21
REMARK SMILES IDX 35 22 4 23 3 24 2 25 1 26 17 27 18 28 26 29 19 30 25 31
REMARK SMILES IDX 20 32 21 33 22 34 23 35 24 36
REMARK H PARENT
REMARK Flexibility Score: inf
ROOT
ATOM      1  C   UNL     1       3.160   6.444  -1.025  1.00  0.00    -0.010 A 
ATOM      2  C   UNL     1       3.419   5.194  -0.440  1.00  0.00     0.010 A 
ATOM      3  C   UNL     1       4.242   4.264  -1.069  1.00  0.00     0.009 A 
ATOM      4  C   UNL     1       4.831   4.560  -2.301  1.00  0.00    -0.017 A 
ATOM      5  C   UNL     1       5.655   3.626  -2.930  1.00  0.00     0.009 A 
ATOM      6  C   UNL     1       6.247   3.912  -4.160  1.00  0.00     0.010 A 
ATOM      7  C   UNL     1       6.039   5.145  -4.813  1.00  0.00    -0.009 A 
ATOM      8  C   UNL     1       6.632   5.465  -6.067  1.00  0.00    -0.010 A 
ATOM      9  C   UNL     1       6.372   6.713  -6.653  1.00  0.00     0.010 A 
ATOM     10  C   UNL     1       5.547   7.642  -6.025  1.00  0.00     0.009 A 
ATOM     11  C   UNL     1       4.957   7.347  -4.792  1.00  0.00    -0.017 A 
ATOM     12  C   UNL     1       4.131   8.280  -4.164  1.00  0.00     0.009 A 
ATOM     13  C   UNL     1       3.539   7.993  -2.934  1.00  0.00     0.010 A 
ATOM     14  C   UNL     1       3.750   6.763  -2.281  1.00  0.00    -0.009 A 
ATOM     15  C   UNL     1       4.591   5.810  -2.918  1.00  0.00    -0.002 A 
ATOM     16  C   UNL     1       5.198   6.097  -4.176  1.00  0.00    -0.002 A 
ENDROOT
BRANCH   1  17
ATOM     17  C   UNL     1       2.278   7.374  -0.304  1.00  0.00    -0.018 A 
ATOM     18  C   UNL     1       0.598   9.170   1.084  1.00  0.00     0.119 A 
ATOM     19  C   UNL     1       0.266   8.731  -0.200  1.00  0.00     0.047 A 
ATOM     20  C   UNL     1       1.779   8.718   1.671  1.00  0.00     0.047 A 
ATOM     21  C   UNL     1       1.094   7.842  -0.889  1.00  0.00     0.012 A 
ATOM     22  C   UNL     1       2.610   7.826   0.982  1.00  0.00     0.012 A 
BRANCH  18  23
ATOM     23  O   UNL     1      -0.298  10.044   1.632  1.00  0.00    -0.490 OA
BRANCH  23  24
ATOM     24  C   UNL     1       0.188  11.181   2.346  1.00  0.00     0.257 C 
BRANCH  24  25
ATOM     25  C   UNL     1      -0.247  12.443   1.658  1.00  0.00     0.006 C 
ATOM     26  C   UNL     1      -0.202  13.664   2.209  1.00  0.00     0.007 C 
ENDBRANCH  24  25
ENDBRANCH  23  24
ENDBRANCH  18  23
ENDBRANCH   1  17
BRANCH   8  27
ATOM     27  C   UNL     1       7.517   4.534  -6.785  1.00  0.00    -0.018 A 
ATOM     28  C   UNL     1       7.022   3.330  -7.305  1.00  0.00     0.012 A 
ATOM     29  C   UNL     1       8.876   4.829  -6.960  1.00  0.00     0.012 A 
ATOM     30  C   UNL     1       7.860   2.442  -7.991  1.00  0.00     0.047 A 
ATOM     31  C   UNL     1       9.711   3.941  -7.644  1.00  0.00     0.047 A 
ATOM     32  C   UNL     1       9.209   2.747  -8.165  1.00  0.00     0.119 A 
BRANCH  32  33
ATOM     33  O   UNL     1      10.134   1.975  -8.812  1.00  0.00    -0.490 OA
BRANCH  33  34
ATOM     34  C   UNL     1       9.779   0.620  -9.075  1.00  0.00     0.257 C 
BRANCH  34  35
ATOM     35  C   UNL     1       9.653  -0.075  -7.753  1.00  0.00     0.006 C 
ATOM     36  C   UNL     1      10.685  -0.463  -6.990  1.00  0.00     0.007 C 
ENDBRANCH  34  35
ENDBRANCH  33  34
ENDBRANCH  32  33
ENDBRANCH   8  27
TORSDOF 8
REMARK SMILES C=CCOc1ccc(-c2ccc3ccc4c(-c5ccc(OCC=C)cc5)ccc5ccc2c3c54)cc1
REMARK SMILES IDX 9 1 10 2 11 3 12 4 13 5 14 6 15 7 16 8 27 9 28 10 29 11
REMARK SMILES IDX 30 12 31 13 32 14 33 15 34 16 8 17 5 18 6 19 36 20 7 21
REMARK SMILES IDX 35 22 4 23 3 24 2 25 1 26 17 27 18 28 26 29 19 30 25 31
REMARK SMILES IDX 20 32 21 33 22 34 23 35 24 36
REMARK H PARENT
REMARK Flexibility Score: inf
ROOT
ATOM      1  C   UNL     1       9.498   4.407  -1.914  1.00  0.00    -0.010 A 
ATOM      2  C   UNL     1       8.413   4.990  -1.240  1.00  0.00     0.010 A 
ATOM      3  C   UNL     1       7.901   6.222  -1.636  1.00  0.00     0.009 A 
ATOM      4  C   UNL     1       8.460   6.906  -2.718  1.00  0.00    -0.017 A 
ATOM      5  C   UNL     1       7.946   8.143  -3.112  1.00  0.00     0.009 A 
ATOM      6  C   UNL     1       8.499   8.832  -4.192  1.00  0.00     0.010 A 
ATOM      7  C   UNL     1       9.588   8.314  -4.922  1.00  0.00    -0.009 A 
ATOM      8  C   UNL     1      10.169   8.995  -6.029  1.00  0.00    -0.010 A 
ATOM      9  C   UNL     1      11.255   8.414  -6.702  1.00  0.00     0.010 A 
ATOM     10  C   UNL     1      11.768   7.182  -6.305  1.00  0.00     0.009 A 
ATOM     11  C   UNL     1      11.209   6.498  -5.221  1.00  0.00    -0.017 A 
ATOM     12  C   UNL     1      11.725   5.263  -4.825  1.00  0.00     0.009 A 
ATOM     13  C   UNL     1      11.173   4.573  -3.746  1.00  0.00     0.010 A 
ATOM     14  C   UNL     1      10.081   5.089  -3.019  1.00  0.00    -0.009 A 
ATOM     15  C   UNL     1       9.555   6.347  -3.419  1.00  0.00    -0.002 A 
ATOM     16  C   UNL     1      10.115   7.057  -4.521  1.00  0.00    -0.002 A 
ENDROOT
BRANCH   1  17
ATOM     17  C   UNL     1       9.987   3.104  -1.438  1.00  0.00    -0.018 A 
ATOM     18  C   UNL     1      10.922   0.596  -0.539  1.00  0.00     0.119 A 
ATOM     19  C   UNL     1      11.692   1.748  -0.364  1.00  0.00     0.047 A 
ATOM     20  C   UNL     1       9.685   0.697  -1.174  1.00  0.00     0.047 A 
ATOM     21  C   UNL     1      11.232   2.991  -0.807  1.00  0.00     0.012 A 
ATOM     22  C   UNL     1       9.222   1.942  -1.618  1.00  0.00     0.012 A 
BRANCH  18  23
ATOM     23  O   UNL     1      11.501  -0.548  -0.066  1.00  0.00    -0.490 OA
BRANCH  23  24
ATOM     24  C   UNL     1      11.692  -0.701   1.340  1.00  0.00     0.257 C 
BRANCH  24  25
ATOM     25  C   UNL     1      10.363  -0.799   2.031  1.00  0.00     0.006 C 
ATOM     26  C   UNL     1      10.188  -0.735   3.358  1.00  0.00     0.007 C 
ENDBRANCH  24  25
ENDBRANCH  23  24
ENDBRANCH  18  23
ENDBRANCH   1  17
BRANCH   8  27
ATOM     27  C   UNL     1       9.676  10.297  -6.506  1.00  0.00    -0.018 A 
ATOM     28  C   UNL     1       9.025  10.408  -7.744  1.00  0.00     0.012 A 
ATOM     29  C   UNL     1       9.851  11.455  -5.737  1.00  0.00     0.012 A 
ATOM     30  C   UNL     1       8.552  11.644  -8.201  1.00  0.00     0.047 A 
ATOM     31  C   UNL     1       9.378  12.687  -6.195  1.00  0.00     0.047 A 
ATOM     32  C   UNL     1       8.726  12.790  -7.425  1.00  0.00     0.119 A 
BRANCH  32  33
ATOM     33  O   UNL     1       8.314  14.053  -7.749  1.00  0.00    -0.490 OA
BRANCH  33  34
ATOM     34  C   UNL     1       7.487  14.192  -8.901  1.00  0.00     0.257 C 
BRANCH  34  35
ATOM     35  C   UNL     1       6.079  13.895  -8.479  1.00  0.00     0.006 C 
ATOM     36  C   UNL     1       5.255  13.044  -9.106  1.00  0.00     0.007 C 
ENDBRANCH  34  35
ENDBRANCH  33  34
ENDBRANCH  32  33
ENDBRANCH   8  27
TORSDOF 8
ENDMDL
MODEL 20
REMARK VINA RESULT:    -7.751      2.888     10.268
REMARK INTER + INTRA:         -17.310
REMARK INTER:                 -15.720
REMARK INTRA:                  -1.590
REMARK UNBOUND:                -2.309
REMARK SMILES C=CCOc1ccc(-c2ccc3ccc4c(-c5ccc(OCC=C)cc5)ccc5ccc2c3c54)cc1
REMARK SMILES IDX 9 1 10 2 11 3 12 4 13 5 14 6 15 7 16 8 27 9 28 10 29 11
REMARK SMILES IDX 30 12 31 13 32 14 33 15 34 16 8 17 5 18 6 19 36 20 7 21
REMARK SMILES IDX 35 22 4 23 3 24 2 25 1 26 17 27 18 28 26 29 19 30 25 31
REMARK SMILES IDX 20 32 21 33 22 34 23 35 24 36
REMARK H PARENT
REMARK Flexibility Score: inf
ROOT
ATOM      1  C   UNL     1       1.812   7.538  -1.993  1.00  0.00    -0.010 A 
ATOM      2  C   UNL     1       2.012   8.870  -1.594  1.00  0.00     0.010 A 
ATOM      3  C   UNL     1       3.155   9.568  -1.974  1.00  0.00     0.009 A 
ATOM      4  C   UNL     1       4.130   8.954  -2.764  1.00  0.00    -0.017 A 
ATOM      5  C   UNL     1       5.276   9.655  -3.142  1.00  0.00     0.009 A 
ATOM      6  C   UNL     1       6.253   9.050  -3.931  1.00  0.00     0.010 A 
ATOM      7  C   UNL     1       6.126   7.717  -4.375  1.00  0.00    -0.009 A 
ATOM      8  C   UNL     1       7.107   7.076  -5.182  1.00  0.00    -0.010 A 
ATOM      9  C   UNL     1       6.909   5.744  -5.580  1.00  0.00     0.010 A 
ATOM     10  C   UNL     1       5.767   5.045  -5.199  1.00  0.00     0.009 A 
ATOM     11  C   UNL     1       4.791   5.660  -4.408  1.00  0.00    -0.017 A 
ATOM     12  C   UNL     1       3.647   4.957  -4.027  1.00  0.00     0.009 A 
ATOM     13  C   UNL     1       2.669   5.563  -3.238  1.00  0.00     0.010 A 
ATOM     14  C   UNL     1       2.794   6.896  -2.799  1.00  0.00    -0.009 A 
ATOM     15  C   UNL     1       3.958   7.613  -3.183  1.00  0.00    -0.002 A 
ATOM     16  C   UNL     1       4.962   7.000  -3.989  1.00  0.00    -0.002 A 
ENDROOT
BRANCH   1  17
ATOM     17  C   UNL     1       0.581   6.864  -1.552  1.00  0.00    -0.018 A 
ATOM     18  C   UNL     1      -1.791   5.581  -0.712  1.00  0.00     0.119 A 
ATOM     19  C   UNL     1      -0.854   4.905  -1.499  1.00  0.00     0.047 A 
ATOM     20  C   UNL     1      -1.544   6.906  -0.354  1.00  0.00     0.047 A 
ATOM     21  C   UNL     1       0.320   5.536  -1.916  1.00  0.00     0.012 A 
ATOM     22  C   UNL     1      -0.367   7.540  -0.771  1.00  0.00     0.012 A 
BRANCH  18  23
ATOM     23  O   UNL     1      -2.894   4.844  -0.388  1.00  0.00    -0.490 OA
BRANCH  23  24
ATOM     24  C   UNL     1      -2.864   3.429  -0.573  1.00  0.00     0.257 C 
BRANCH  24  25
ATOM     25  C   UNL     1      -2.809   2.739   0.759  1.00  0.00     0.006 C 
ATOM     26  C   UNL     1      -1.739   2.728   1.567  1.00  0.00     0.007 C 
ENDBRANCH  24  25
ENDBRANCH  23  24
ENDBRANCH  18  23
ENDBRANCH   1  17
BRANCH   8  27
ATOM     27  C   UNL     1       8.336   7.754  -5.626  1.00  0.00    -0.018 A 
ATOM     28  C   UNL     1       9.481   7.765  -4.817  1.00  0.00     0.012 A 
ATOM     29  C   UNL     1       8.386   8.408  -6.864  1.00  0.00     0.012 A 
ATOM     30  C   UNL     1      10.653   8.408  -5.235  1.00  0.00     0.047 A 
ATOM     31  C   UNL     1       9.556   9.048  -7.280  1.00  0.00     0.047 A 
ATOM     32  C   UNL     1      10.695   9.051  -6.471  1.00  0.00     0.119 A 
BRANCH  32  33
ATOM     33  O   UNL     1      11.768   9.712  -7.001  1.00  0.00    -0.490 OA
BRANCH  33  34
ATOM     34  C   UNL     1      11.506  10.935  -7.683  1.00  0.00     0.257 C 
BRANCH  34  35
ATOM     35  C   UNL     1      11.769  12.051  -6.717  1.00  0.00     0.006 C 
ATOM     36  C   UNL     1      10.884  12.514  -5.822  1.00  0.00     0.007 C 
ENDBRANCH  34  35
ENDBRANCH  33  34
ENDBRANCH  32  33
ENDBRANCH   8  27
TORSDOF 8
REMARK SMILES C=CCOc1ccc(-c2ccc3ccc4c(-c5ccc(OCC=C)cc5)ccc5ccc2c3c54)cc1
REMARK SMILES IDX 9 1 10 2 11 3 12 4 13 5 14 6 15 7 16 8 27 9 28 10 29 11
REMARK SMILES IDX 30 12 31 13 32 14 33 15 34 16 8 17 5 18 6 19 36 20 7 21
REMARK SMILES IDX 35 22 4 23 3 24 2 25 1 26 17 27 18 28 26 29 19 30 25 31
REMARK SMILES IDX 20 32 21 33 22 34 23 35 24 36
REMARK H PARENT
REMARK Flexibility Score: inf
ROOT
ATOM      1  C   UNL     1       7.399   5.394  -1.685  1.00  0.00    -0.010 A 
ATOM      2  C   UNL     1       8.050   6.633  -1.574  1.00  0.00     0.010 A 
ATOM      3  C   UNL     1       7.472   7.687  -0.872  1.00  0.00     0.009 A 
ATOM      4  C   UNL     1       6.225   7.530  -0.261  1.00  0.00    -0.017 A 
ATOM      5  C   UNL     1       5.647   8.589   0.441  1.00  0.00     0.009 A 
ATOM      6  C   UNL     1       4.403   8.442   1.054  1.00  0.00     0.010 A 
ATOM      7  C   UNL     1       3.685   7.230   0.991  1.00  0.00    -0.009 A 
ATOM      8  C   UNL     1       2.415   7.051   1.609  1.00  0.00    -0.010 A 
ATOM      9  C   UNL     1       1.762   5.814   1.496  1.00  0.00     0.010 A 
ATOM     10  C   UNL     1       2.340   4.760   0.793  1.00  0.00     0.009 A 
ATOM     11  C   UNL     1       3.587   4.916   0.181  1.00  0.00    -0.017 A 
ATOM     12  C   UNL     1       4.164   3.858  -0.523  1.00  0.00     0.009 A 
ATOM     13  C   UNL     1       5.408   4.006  -1.136  1.00  0.00     0.010 A 
ATOM     14  C   UNL     1       6.128   5.216  -1.069  1.00  0.00    -0.009 A 
ATOM     15  C   UNL     1       5.542   6.295  -0.354  1.00  0.00    -0.002 A 
ATOM     16  C   UNL     1       4.270   6.151   0.275  1.00  0.00    -0.002 A 
ENDROOT
BRANCH   1  17
ATOM     17  C   UNL     1       8.070   4.327  -2.444  1.00  0.00    -0.018 A 
ATOM     18  C   UNL     1       9.343   2.275  -3.907  1.00  0.00     0.119 A 
ATOM     19  C   UNL     1       9.779   3.598  -4.008  1.00  0.00     0.047 A 
ATOM     20  C   UNL     1       8.260   1.979  -3.079  1.00  0.00     0.047 A 
ATOM     21  C   UNL     1       9.152   4.616  -3.285  1.00  0.00     0.012 A 
ATOM     22  C   UNL     1       7.630   2.998  -2.353  1.00  0.00     0.012 A 
BRANCH  18  23
ATOM     23  O   UNL     1      10.042   1.388  -4.676  1.00  0.00    -0.490 OA
BRANCH  23  24
ATOM     24  C   UNL     1      10.682   1.854  -5.864  1.00  0.00     0.257 C 
BRANCH  24  25
ATOM     25  C   UNL     1      10.687   0.770  -6.903  1.00  0.00     0.006 C 
ATOM     26  C   UNL     1      10.213  -0.469  -6.713  1.00  0.00     0.007 C 
ENDBRANCH  24  25
ENDBRANCH  23  24
ENDBRANCH  18  23
ENDBRANCH   1  17
BRANCH   8  27
ATOM     27  C   UNL     1       1.748   8.118   2.371  1.00  0.00    -0.018 A 
ATOM     28  C   UNL     1       1.530   7.987   3.750  1.00  0.00     0.012 A 
ATOM     29  C   UNL     1       1.310   9.287   1.734  1.00  0.00     0.012 A 
ATOM     30  C   UNL     1       0.897   9.001   4.480  1.00  0.00     0.047 A 
ATOM     31  C   UNL     1       0.679  10.298   2.464  1.00  0.00     0.047 A 
ATOM     32  C   UNL     1       0.471  10.162   3.838  1.00  0.00     0.119 A 
BRANCH  32  33
ATOM     33  O   UNL     1      -0.156  11.226   4.427  1.00  0.00    -0.490 OA
BRANCH  33  34
ATOM     34  C   UNL     1      -0.959  12.052   3.589  1.00  0.00     0.257 C 
BRANCH  34  35
ATOM     35  C   UNL     1      -2.388  11.650   3.801  1.00  0.00     0.006 C 
ATOM     36  C   UNL     1      -3.016  11.652   4.985  1.00  0.00     0.007 C 
ENDBRANCH  34  35
ENDBRANCH  33  34
ENDBRANCH  32  33
ENDBRANCH   8  27
TORSDOF 8
ENDMDL
