@<TRIPOS>MOLECULE
UNL
   54    59     1     0     0
SMALL
bcc


@<TRIPOS>ATOM
      1 C1          -0.6020     7.2940    -6.0920 c3         1 UNL       0.113700
      2 O1          -0.7930     7.3100    -4.6830 os         1 UNL      -0.326900
      3 C2          -0.3560     6.2170    -3.9870 ca         1 UNL       0.127100
      4 C3          -0.5620     6.2810    -2.6080 ca         1 UNL      -0.182500
      5 C4          -0.1640     5.2310    -1.7770 ca         1 UNL      -0.085000
      6 C5           0.4490     4.0920    -2.3140 cp         1 UNL      -0.079000
      7 C6           0.8730     2.9830    -1.4450 cp         1 UNL      -0.018000
      8 C7           2.1720     3.0200    -0.9150 ca         1 UNL      -0.119000
      9 C8           2.6380     2.0030    -0.0870 ca         1 UNL      -0.116000
     10 C9           1.8160     0.9190     0.2340 ca         1 UNL      -0.033000
     11 C10          2.2850    -0.1000     1.0650 ca         1 UNL      -0.118000
     12 C11          1.4700    -1.1850     1.3910 ca         1 UNL      -0.115000
     13 C12          0.1540    -1.2960     0.9010 ca         1 UNL      -0.020000
     14 C13         -0.6990    -2.3910     1.2170 cp         1 UNL      -0.018000
     15 C14         -0.2730    -3.5030     2.0820 cp         1 UNL      -0.079000
     16 C15         -0.4750    -3.4510     3.4670 ca         1 UNL      -0.085000
     17 C16         -0.0700    -4.5110     4.2830 ca         1 UNL      -0.182500
     18 C17          0.5410    -5.6400     3.7340 ca         1 UNL       0.127100
     19 O2           0.8880    -6.6010     4.6430 os         1 UNL      -0.326900
     20 C18          1.5100    -7.7740     4.1330 c3         1 UNL       0.113700
     21 C19          0.7440    -5.7020     2.3560 ca         1 UNL      -0.182500
     22 C20          0.3380    -4.6410     1.5370 ca         1 UNL      -0.085000
     23 C21         -1.9990    -2.4270     0.6900 ca         1 UNL      -0.119000
     24 C22         -2.4650    -1.4090    -0.1370 ca         1 UNL      -0.116000
     25 C23         -1.6420    -0.3260    -0.4600 ca         1 UNL      -0.033000
     26 C24         -2.1120     0.6940    -1.2900 ca         1 UNL      -0.118000
     27 C25         -1.2970     1.7780    -1.6160 ca         1 UNL      -0.115000
     28 C26          0.0200     1.8880    -1.1270 ca         1 UNL      -0.020000
     29 C27          0.5000     0.8520    -0.2820 ca         1 UNL      -0.016000
     30 C28         -0.3270    -0.2590     0.0550 ca         1 UNL      -0.016000
     31 C29          0.6560     4.0350    -3.7000 ca         1 UNL      -0.085000
     32 C30          0.2560     5.0880    -4.5320 ca         1 UNL      -0.182500
     33 H1           0.4620     7.2490    -6.3450 h1         1 UNL       0.044700
     34 H2          -1.1560     6.4710    -6.5560 h1         1 UNL       0.044700
     35 H3          -1.0010     8.2310    -6.4930 h1         1 UNL       0.044700
     36 H4          -1.0380     7.1580    -2.1750 ha         1 UNL       0.144500
     37 H5          -0.3360     5.3040    -0.7050 ha         1 UNL       0.140500
     38 H6           2.8320     3.8540    -1.1510 ha         1 UNL       0.137000
     39 H7           3.6510     2.0670     0.3040 ha         1 UNL       0.135000
     40 H8           3.2930    -0.0640     1.4720 ha         1 UNL       0.134000
     41 H9           1.8850    -1.9510     2.0430 ha         1 UNL       0.143000
     42 H10         -0.9480    -2.5810     3.9190 ha         1 UNL       0.140500
     43 H11         -0.2330    -4.4550     5.3570 ha         1 UNL       0.144500
     44 H12          0.8430    -8.3090     3.4490 h1         1 UNL       0.044700
     45 H13          1.7200    -8.4350     4.9790 h1         1 UNL       0.044700
     46 H14          2.4640    -7.5360     3.6510 h1         1 UNL       0.044700
     47 H15          1.2130    -6.5580     1.8840 ha         1 UNL       0.144500
     48 H16          0.5050    -4.7050     0.4640 ha         1 UNL       0.140500
     49 H17         -2.6590    -3.2590     0.9270 ha         1 UNL       0.137000
     50 H18         -3.4790    -1.4710    -0.5260 ha         1 UNL       0.135000
     51 H19         -3.1220     0.6600    -1.6940 ha         1 UNL       0.134000
     52 H20         -1.7130     2.5460    -2.2660 ha         1 UNL       0.143000
     53 H21          1.1310     3.1600    -4.1410 ha         1 UNL       0.140500
     54 H22          0.4380     4.9920    -5.5970 ha         1 UNL       0.144500
@<TRIPOS>BOND
     1     1     2 1   
     2     1    33 1   
     3     1    34 1   
     4     1    35 1   
     5     2     3 1   
     6     3     4 ar  
     7     3    32 ar  
     8     4     5 ar  
     9     4    36 1   
    10     5     6 ar  
    11     5    37 1   
    12     6     7 1   
    13     6    31 ar  
    14     7     8 ar  
    15     7    28 ar  
    16     8     9 ar  
    17     8    38 1   
    18     9    10 ar  
    19     9    39 1   
    20    10    11 ar  
    21    10    29 ar  
    22    11    12 ar  
    23    11    40 1   
    24    12    13 ar  
    25    12    41 1   
    26    13    14 ar  
    27    13    30 ar  
    28    14    15 1   
    29    14    23 ar  
    30    15    16 ar  
    31    15    22 ar  
    32    16    17 ar  
    33    16    42 1   
    34    17    18 ar  
    35    17    43 1   
    36    18    19 1   
    37    18    21 ar  
    38    19    20 1   
    39    20    44 1   
    40    20    45 1   
    41    20    46 1   
    42    21    22 ar  
    43    21    47 1   
    44    22    48 1   
    45    23    24 ar  
    46    23    49 1   
    47    24    25 ar  
    48    24    50 1   
    49    25    26 ar  
    50    25    30 ar  
    51    26    27 ar  
    52    26    51 1   
    53    27    28 ar  
    54    27    52 1   
    55    28    29 ar  
    56    29    30 ar  
    57    31    32 ar  
    58    31    53 1   
    59    32    54 1   
@<TRIPOS>SUBSTRUCTURE
     1 UNL         1 TEMP              0 ****  ****    0 ROOT
