@<TRIPOS>MOLECULE
UNL
   54    59     1     0     0
SMALL
bcc


@<TRIPOS>ATOM
      1 C1           7.6890     4.9990     1.7990 c3         1 UNL       0.113700
      2 O1           6.5290     5.4420     1.1070 os         1 UNL      -0.326900
      3 C2           5.4430     4.6120     1.1270 ca         1 UNL       0.127100
      4 C3           5.3680     3.3720     1.7600 ca         1 UNL      -0.182500
      5 C4           4.1880     2.6210     1.7000 ca         1 UNL      -0.085000
      6 C5           3.0650     3.0970     1.0070 cp         1 UNL      -0.079000
      7 C6           1.8260     2.3050     0.9480 cp         1 UNL      -0.018000
      8 C7           0.8700     2.5020     1.9570 ca         1 UNL      -0.119000
      9 C8          -0.3220     1.7840     1.9630 ca         1 UNL      -0.116000
     10 C9          -0.5920     0.8500     0.9600 ca         1 UNL      -0.033000
     11 C10         -1.7900     0.1320     0.9680 ca         1 UNL      -0.118000
     12 C11         -2.0660    -0.8020    -0.0300 ca         1 UNL      -0.115000
     13 C12         -1.1590    -1.0570    -1.0780 ca         1 UNL      -0.020000
     14 C13         -1.4160    -2.0040    -2.1090 cp         1 UNL      -0.018000
     15 C14         -2.6530    -2.8000    -2.1650 cp         1 UNL      -0.079000
     16 C15         -2.7290    -4.0510    -1.5350 ca         1 UNL      -0.085000
     17 C16         -3.9030    -4.8120    -1.5860 ca         1 UNL      -0.182500
     18 C17         -5.0190    -4.3340    -2.2710 ca         1 UNL       0.127100
     19 O2          -6.2210    -4.9720    -2.3970 os         1 UNL      -0.326900
     20 C18         -6.3420    -6.2450    -1.7740 c3         1 UNL       0.113700
     21 C19         -4.9490    -3.0900    -2.9030 ca         1 UNL      -0.182500
     22 C20         -3.7780    -2.3290    -2.8530 ca         1 UNL      -0.085000
     23 C21         -0.4610    -2.1990    -3.1200 ca         1 UNL      -0.119000
     24 C22          0.7310    -1.4810    -3.1270 ca         1 UNL      -0.116000
     25 C23          1.0010    -0.5470    -2.1220 ca         1 UNL      -0.033000
     26 C24          2.1980     0.1720    -2.1310 ca         1 UNL      -0.118000
     27 C25          2.4750     1.1050    -1.1320 ca         1 UNL      -0.115000
     28 C26          1.5690     1.3590    -0.0830 ca         1 UNL      -0.020000
     29 C27          0.3490     0.6290    -0.0720 ca         1 UNL      -0.016000
     30 C28          0.0600    -0.3270    -1.0900 ca         1 UNL      -0.016000
     31 C29          3.1490     4.3460     0.3770 ca         1 UNL      -0.085000
     32 C30          4.3280     5.0930     0.4380 ca         1 UNL      -0.182500
     33 H1           8.0800     4.0730     1.3630 h1         1 UNL       0.044700
     34 H2           7.4890     4.8790     2.8690 h1         1 UNL       0.044700
     35 H3           8.4590     5.7690     1.6890 h1         1 UNL       0.044700
     36 H4           6.2070     2.9560     2.3070 ha         1 UNL       0.144500
     37 H5           4.1470     1.6540     2.1980 ha         1 UNL       0.140500
     38 H6           1.0570     3.2240     2.7500 ha         1 UNL       0.137000
     39 H7          -1.0390     1.9640     2.7620 ha         1 UNL       0.135000
     40 H8          -2.5260     0.2900     1.7540 ha         1 UNL       0.134000
     41 H9          -3.0150    -1.3340     0.0230 ha         1 UNL       0.143000
     42 H10         -1.8670    -4.4380    -0.9940 ha         1 UNL       0.140500
     43 H11         -3.9080    -5.7720    -1.0800 ha         1 UNL       0.144500
     44 H12         -7.3520    -6.6180    -1.9680 h1         1 UNL       0.044700
     45 H13         -6.2190    -6.1660    -0.6890 h1         1 UNL       0.044700
     46 H14         -5.6340    -6.9630    -2.2020 h1         1 UNL       0.044700
     47 H15         -5.8140    -2.7100    -3.4400 ha         1 UNL       0.144500
     48 H16         -3.7490    -1.3630    -3.3530 ha         1 UNL       0.140500
     49 H17         -0.6490    -2.9200    -3.9140 ha         1 UNL       0.137000
     50 H18          1.4460    -1.6580    -3.9270 ha         1 UNL       0.135000
     51 H19          2.9330     0.0160    -2.9180 ha         1 UNL       0.134000
     52 H20          3.4220     1.6390    -1.1870 ha         1 UNL       0.143000
     53 H21          2.2940     4.7420    -0.1670 ha         1 UNL       0.140500
     54 H22          4.3770     6.0600    -0.0580 ha         1 UNL       0.144500
@<TRIPOS>BOND
     1     1     2 1   
     2     1    33 1   
     3     1    34 1   
     4     1    35 1   
     5     2     3 1   
     6     3     4 ar  
     7     3    32 ar  
     8     4     5 ar  
     9     4    36 1   
    10     5     6 ar  
    11     5    37 1   
    12     6     7 1   
    13     6    31 ar  
    14     7     8 ar  
    15     7    28 ar  
    16     8     9 ar  
    17     8    38 1   
    18     9    10 ar  
    19     9    39 1   
    20    10    11 ar  
    21    10    29 ar  
    22    11    12 ar  
    23    11    40 1   
    24    12    13 ar  
    25    12    41 1   
    26    13    14 ar  
    27    13    30 ar  
    28    14    15 1   
    29    14    23 ar  
    30    15    16 ar  
    31    15    22 ar  
    32    16    17 ar  
    33    16    42 1   
    34    17    18 ar  
    35    17    43 1   
    36    18    19 1   
    37    18    21 ar  
    38    19    20 1   
    39    20    44 1   
    40    20    45 1   
    41    20    46 1   
    42    21    22 ar  
    43    21    47 1   
    44    22    48 1   
    45    23    24 ar  
    46    23    49 1   
    47    24    25 ar  
    48    24    50 1   
    49    25    26 ar  
    50    25    30 ar  
    51    26    27 ar  
    52    26    51 1   
    53    27    28 ar  
    54    27    52 1   
    55    28    29 ar  
    56    29    30 ar  
    57    31    32 ar  
    58    31    53 1   
    59    32    54 1   
@<TRIPOS>SUBSTRUCTURE
     1 UNL         1 TEMP              0 ****  ****    0 ROOT
