@<TRIPOS>MOLECULE
UNL
   54    59     1     0     0
SMALL
bcc


@<TRIPOS>ATOM
      1 C1           0.3670     7.9530    -4.1470 c3         1 UNL       0.113700
      2 O1           0.5690     6.6580    -4.6960 os         1 UNL      -0.326900
      3 C2           0.6720     5.6210    -3.8110 ca         1 UNL       0.127100
      4 C3           0.8740     4.3700    -4.3980 ca         1 UNL      -0.182500
      5 C4           0.9960     3.2220    -3.6090 ca         1 UNL      -0.085000
      6 C5           0.9160     3.3070    -2.2130 cp         1 UNL      -0.079000
      7 C6           1.0450     2.1040    -1.3770 cp         1 UNL      -0.018000
      8 C7           2.3290     1.7370    -0.9430 ca         1 UNL      -0.119000
      9 C8           2.5220     0.6110    -0.1480 ca         1 UNL      -0.116000
     10 C9           1.4360    -0.1800     0.2360 ca         1 UNL      -0.033000
     11 C10          1.6330    -1.3090     1.0340 ca         1 UNL      -0.118000
     12 C11          0.5530    -2.1030     1.4210 ca         1 UNL      -0.115000
     13 C12         -0.7660    -1.8030     1.0280 ca         1 UNL      -0.020000
     14 C13         -1.8850    -2.5960     1.4090 cp         1 UNL      -0.018000
     15 C14         -1.7560    -3.7970     2.2500 cp         1 UNL      -0.079000
     16 C15         -1.5540    -5.0570     1.6730 ca         1 UNL      -0.085000
     17 C16         -1.4340    -6.1940     2.4770 ca         1 UNL      -0.182500
     18 C17         -1.5160    -6.0960     3.8680 ca         1 UNL       0.127100
     19 O2          -1.3820    -7.2830     4.5340 os         1 UNL      -0.326900
     20 C18         -1.4620    -7.2360     5.9530 c3         1 UNL       0.113700
     21 C19         -1.7210    -4.8460     4.4510 ca         1 UNL      -0.182500
     22 C20         -1.8410    -3.7060     3.6460 ca         1 UNL      -0.085000
     23 C21         -3.1690    -2.2310     0.9730 ca         1 UNL      -0.119000
     24 C22         -3.3620    -1.1050     0.1770 ca         1 UNL      -0.116000
     25 C23         -2.2760    -0.3140    -0.2060 ca         1 UNL      -0.033000
     26 C24         -2.4720     0.8140    -1.0050 ca         1 UNL      -0.118000
     27 C25         -1.3930     1.6090    -1.3910 ca         1 UNL      -0.115000
     28 C26         -0.0740     1.3100    -0.9960 ca         1 UNL      -0.020000
     29 C27          0.1290     0.1620    -0.1840 ca         1 UNL      -0.016000
     30 C28         -0.9690    -0.6550     0.2150 ca         1 UNL      -0.016000
     31 C29          0.7160     4.5670    -1.6300 ca         1 UNL      -0.085000
     32 C30          0.5940     5.7160    -2.4220 ca         1 UNL      -0.182500
     33 H1           1.2100     8.2510    -3.5150 h1         1 UNL       0.044700
     34 H2           0.3080     8.6630    -4.9780 h1         1 UNL       0.044700
     35 H3          -0.5790     8.0060    -3.5970 h1         1 UNL       0.044700
     36 H4           0.9370     4.2860    -5.4800 ha         1 UNL       0.144500
     37 H5           1.1520     2.2590    -4.0900 ha         1 UNL       0.140500
     38 H6           3.1920     2.3360    -1.2300 ha         1 UNL       0.137000
     39 H7           3.5320     0.3580     0.1670 ha         1 UNL       0.135000
     40 H8           2.6310    -1.5870     1.3650 ha         1 UNL       0.134000
     41 H9           0.7620    -2.9730     2.0420 ha         1 UNL       0.143000
     42 H10         -1.4860    -5.1600     0.5920 ha         1 UNL       0.140500
     43 H11         -1.2760    -7.1650     2.0150 ha         1 UNL       0.144500
     44 H12         -0.6560    -6.6260     6.3740 h1         1 UNL       0.044700
     45 H13         -2.4430    -6.8770     6.2810 h1         1 UNL       0.044700
     46 H14         -1.3380    -8.2560     6.3280 h1         1 UNL       0.044700
     47 H15         -1.7910    -4.7190     5.5260 ha         1 UNL       0.144500
     48 H16         -1.9990    -2.7370     4.1170 ha         1 UNL       0.140500
     49 H17         -4.0310    -2.8310     1.2580 ha         1 UNL       0.137000
     50 H18         -4.3710    -0.8550    -0.1410 ha         1 UNL       0.135000
     51 H19         -3.4700     1.0910    -1.3390 ha         1 UNL       0.134000
     52 H20         -1.6010     2.4770    -2.0150 ha         1 UNL       0.143000
     53 H21          0.6510     4.6590    -0.5470 ha         1 UNL       0.140500
     54 H22          0.4390     6.6650    -1.9200 ha         1 UNL       0.144500
@<TRIPOS>BOND
     1     1     2 1   
     2     1    33 1   
     3     1    34 1   
     4     1    35 1   
     5     2     3 1   
     6     3     4 ar  
     7     3    32 ar  
     8     4     5 ar  
     9     4    36 1   
    10     5     6 ar  
    11     5    37 1   
    12     6     7 1   
    13     6    31 ar  
    14     7     8 ar  
    15     7    28 ar  
    16     8     9 ar  
    17     8    38 1   
    18     9    10 ar  
    19     9    39 1   
    20    10    11 ar  
    21    10    29 ar  
    22    11    12 ar  
    23    11    40 1   
    24    12    13 ar  
    25    12    41 1   
    26    13    14 ar  
    27    13    30 ar  
    28    14    15 1   
    29    14    23 ar  
    30    15    16 ar  
    31    15    22 ar  
    32    16    17 ar  
    33    16    42 1   
    34    17    18 ar  
    35    17    43 1   
    36    18    19 1   
    37    18    21 ar  
    38    19    20 1   
    39    20    44 1   
    40    20    45 1   
    41    20    46 1   
    42    21    22 ar  
    43    21    47 1   
    44    22    48 1   
    45    23    24 ar  
    46    23    49 1   
    47    24    25 ar  
    48    24    50 1   
    49    25    26 ar  
    50    25    30 ar  
    51    26    27 ar  
    52    26    51 1   
    53    27    28 ar  
    54    27    52 1   
    55    28    29 ar  
    56    29    30 ar  
    57    31    32 ar  
    58    31    53 1   
    59    32    54 1   
@<TRIPOS>SUBSTRUCTURE
     1 UNL         1 TEMP              0 ****  ****    0 ROOT
