@<TRIPOS>MOLECULE
UNL
   54    59     1     0     0
SMALL
bcc


@<TRIPOS>ATOM
      1 C1          -1.5200    -5.6420    -7.3900 c3         1 UNL       0.113700
      2 O1          -2.0410    -4.3430    -7.1370 os         1 UNL      -0.326900
      3 C2          -1.3990    -3.5930    -6.1910 ca         1 UNL       0.127100
      4 C3          -1.9450    -2.3250    -5.9820 ca         1 UNL      -0.182500
      5 C4          -1.3870    -1.4540    -5.0420 ca         1 UNL      -0.085000
      6 C5          -0.2690    -1.8390    -4.2910 cp         1 UNL      -0.079000
      7 C6           0.3240    -0.9270    -3.3020 cp         1 UNL      -0.018000
      8 C7           1.3350    -0.0530    -3.7330 ca         1 UNL      -0.119000
      9 C8           1.9400     0.8350    -2.8490 ca         1 UNL      -0.116000
     10 C9           1.5520     0.8730    -1.5070 ca         1 UNL      -0.033000
     11 C10          2.1620     1.7640    -0.6210 ca         1 UNL      -0.118000
     12 C11          1.7800     1.8080     0.7200 ca         1 UNL      -0.115000
     13 C12          0.7730     0.9650     1.2310 ca         1 UNL      -0.020000
     14 C13          0.3630     0.9900     2.5940 cp         1 UNL      -0.018000
     15 C14          0.9570     1.9030     3.5840 cp         1 UNL      -0.079000
     16 C15          2.0740     1.5180     4.3350 ca         1 UNL      -0.085000
     17 C16          2.6330     2.3890     5.2750 ca         1 UNL      -0.182500
     18 C17          2.0860     3.6570     5.4840 ca         1 UNL       0.127100
     19 O2           2.7290     4.4070     6.4300 os         1 UNL      -0.326900
     20 C18          2.2080     5.7060     6.6830 c3         1 UNL       0.113700
     21 C19          0.9720     4.0480     4.7430 ca         1 UNL      -0.182500
     22 C20          0.4120     3.1770     3.8010 ca         1 UNL      -0.085000
     23 C21         -0.6470     0.1160     3.0260 ca         1 UNL      -0.119000
     24 C22         -1.2530    -0.7720     2.1410 ca         1 UNL      -0.116000
     25 C23         -0.8640    -0.8100     0.7990 ca         1 UNL      -0.033000
     26 C24         -1.4740    -1.7010    -0.0860 ca         1 UNL      -0.118000
     27 C25         -1.0920    -1.7450    -1.4270 ca         1 UNL      -0.115000
     28 C26         -0.0850    -0.9020    -1.9380 ca         1 UNL      -0.020000
     29 C27          0.5370     0.0070    -1.0390 ca         1 UNL      -0.016000
     30 C28          0.1510     0.0570     0.3320 ca         1 UNL      -0.016000
     31 C29          0.2760    -3.1130    -4.5090 ca         1 UNL      -0.085000
     32 C30         -0.2840    -3.9850    -5.4510 ca         1 UNL      -0.182500
     33 H1          -0.4950    -5.5890    -7.7710 h1         1 UNL       0.044700
     34 H2          -1.5790    -6.2720    -6.4960 h1         1 UNL       0.044700
     35 H3          -2.1390    -6.1050    -8.1650 h1         1 UNL       0.044700
     36 H4          -2.8140    -2.0120    -6.5550 ha         1 UNL       0.144500
     37 H5          -1.8320    -0.4720    -4.8960 ha         1 UNL       0.140500
     38 H6           1.6550    -0.0630    -4.7740 ha         1 UNL       0.137000
     39 H7           2.7200     1.4970    -3.2200 ha         1 UNL       0.135000
     40 H8           2.9450     2.4380    -0.9630 ha         1 UNL       0.134000
     41 H9           2.2880     2.5210     1.3680 ha         1 UNL       0.143000
     42 H10          2.5190     0.5350     4.1890 ha         1 UNL       0.140500
     43 H11          3.5010     2.0750     5.8480 ha         1 UNL       0.144500
     44 H12          2.8260     6.1690     7.4570 h1         1 UNL       0.044700
     45 H13          2.2660     6.3350     5.7890 h1         1 UNL       0.044700
     46 H14          1.1820     5.6520     7.0630 h1         1 UNL       0.044700
     47 H15          0.5120     5.0220     4.8700 ha         1 UNL       0.144500
     48 H16         -0.4580     3.4980     3.2310 ha         1 UNL       0.140500
     49 H17         -0.9670     0.1270     4.0670 ha         1 UNL       0.137000
     50 H18         -2.0320    -1.4330     2.5130 ha         1 UNL       0.135000
     51 H19         -2.2570    -2.3740     0.2560 ha         1 UNL       0.134000
     52 H20         -1.6000    -2.4570    -2.0750 ha         1 UNL       0.143000
     53 H21          1.1460    -3.4350    -3.9380 ha         1 UNL       0.140500
     54 H22          0.1760    -4.9590    -5.5780 ha         1 UNL       0.144500
@<TRIPOS>BOND
     1     1     2 1   
     2     1    33 1   
     3     1    34 1   
     4     1    35 1   
     5     2     3 1   
     6     3     4 ar  
     7     3    32 ar  
     8     4     5 ar  
     9     4    36 1   
    10     5     6 ar  
    11     5    37 1   
    12     6     7 1   
    13     6    31 ar  
    14     7     8 ar  
    15     7    28 ar  
    16     8     9 ar  
    17     8    38 1   
    18     9    10 ar  
    19     9    39 1   
    20    10    11 ar  
    21    10    29 ar  
    22    11    12 ar  
    23    11    40 1   
    24    12    13 ar  
    25    12    41 1   
    26    13    14 ar  
    27    13    30 ar  
    28    14    15 1   
    29    14    23 ar  
    30    15    16 ar  
    31    15    22 ar  
    32    16    17 ar  
    33    16    42 1   
    34    17    18 ar  
    35    17    43 1   
    36    18    19 1   
    37    18    21 ar  
    38    19    20 1   
    39    20    44 1   
    40    20    45 1   
    41    20    46 1   
    42    21    22 ar  
    43    21    47 1   
    44    22    48 1   
    45    23    24 ar  
    46    23    49 1   
    47    24    25 ar  
    48    24    50 1   
    49    25    26 ar  
    50    25    30 ar  
    51    26    27 ar  
    52    26    51 1   
    53    27    28 ar  
    54    27    52 1   
    55    28    29 ar  
    56    29    30 ar  
    57    31    32 ar  
    58    31    53 1   
    59    32    54 1   
@<TRIPOS>SUBSTRUCTURE
     1 UNL         1 TEMP              0 ****  ****    0 ROOT
