@<TRIPOS>MOLECULE
UNL
   54    59     1     0     0
SMALL
bcc


@<TRIPOS>ATOM
      1 C1          -0.4200     9.1250     0.3760 c3         1 UNL       0.113700
      2 O1           0.6670     8.3120    -0.0490 os         1 UNL      -0.326900
      3 C2           0.6240     6.9910     0.3010 ca         1 UNL       0.127100
      4 C3           1.7150     6.2360    -0.1350 ca         1 UNL      -0.182500
      5 C4           1.7990     4.8710     0.1520 ca         1 UNL      -0.085000
      6 C5           0.7870     4.2350     0.8830 cp         1 UNL      -0.079000
      7 C6           0.8700     2.7980     1.1910 cp         1 UNL      -0.018000
      8 C7           1.5070     2.4150     2.3810 ca         1 UNL      -0.119000
      9 C8           1.6190     1.0730     2.7340 ca         1 UNL      -0.116000
     10 C9           1.0960     0.0770     1.9050 ca         1 UNL      -0.033000
     11 C10          1.2090    -1.2680     2.2620 ca         1 UNL      -0.118000
     12 C11          0.6900    -2.2690     1.4400 ca         1 UNL      -0.115000
     13 C12          0.0370    -1.9660     0.2280 ca         1 UNL      -0.020000
     14 C13         -0.5020    -2.9670    -0.6300 cp         1 UNL      -0.018000
     15 C14         -0.4240    -4.4030    -0.3190 cp         1 UNL      -0.079000
     16 C15         -1.4420    -5.0350     0.4090 ca         1 UNL      -0.085000
     17 C16         -1.3730    -6.4020     0.7060 ca         1 UNL      -0.182500
     18 C17         -0.2830    -7.1580     0.2750 ca         1 UNL       0.127100
     19 O2          -0.0920    -8.4940     0.4960 os         1 UNL      -0.326900
     20 C18         -1.1020    -9.1740     1.2300 c3         1 UNL       0.113700
     21 C19          0.7320    -6.5350    -0.4540 ca         1 UNL      -0.182500
     22 C20          0.6650    -5.1720    -0.7510 ca         1 UNL      -0.085000
     23 C21         -1.1370    -2.5830    -1.8220 ca         1 UNL      -0.119000
     24 C22         -1.2470    -1.2420    -2.1750 ca         1 UNL      -0.116000
     25 C23         -0.7250    -0.2450    -1.3460 ca         1 UNL      -0.033000
     26 C24         -0.8380     1.1000    -1.7030 ca         1 UNL      -0.118000
     27 C25         -0.3190     2.1000    -0.8800 ca         1 UNL      -0.115000
     28 C26          0.3330     1.7980     0.3330 ca         1 UNL      -0.020000
     29 C27          0.4490     0.4290     0.6980 ca         1 UNL      -0.016000
     30 C28         -0.0790    -0.5980    -0.1380 ca         1 UNL      -0.016000
     31 C29         -0.3030     5.0000     1.3210 ca         1 UNL      -0.085000
     32 C30         -0.3860     6.3670     1.0320 ca         1 UNL      -0.182500
     33 H1          -0.4830     9.1600     1.4690 h1         1 UNL       0.044700
     34 H2          -1.3630     8.7850    -0.0640 h1         1 UNL       0.044700
     35 H3          -0.2350    10.1430     0.0210 h1         1 UNL       0.044700
     36 H4           2.5080     6.7150    -0.7050 ha         1 UNL       0.144500
     37 H5           2.6580     4.3040    -0.2000 ha         1 UNL       0.140500
     38 H6           1.9230     3.1720     3.0440 ha         1 UNL       0.137000
     39 H7           2.1200     0.8150     3.6650 ha         1 UNL       0.135000
     40 H8           1.7050    -1.5580     3.1860 ha         1 UNL       0.134000
     41 H9           0.8060    -3.3010     1.7640 ha         1 UNL       0.143000
     42 H10         -2.2980    -4.4590     0.7550 ha         1 UNL       0.140500
     43 H11         -2.1860    -6.8400     1.2740 ha         1 UNL       0.144500
     44 H12         -1.1930    -8.7690     2.2430 h1         1 UNL       0.044700
     45 H13         -2.0610    -9.1450     0.7040 h1         1 UNL       0.044700
     46 H14         -0.8020   -10.2230     1.3180 h1         1 UNL       0.044700
     47 H15          1.5850    -7.1180    -0.7940 ha         1 UNL       0.144500
     48 H16          1.4690    -4.7090    -1.3190 ha         1 UNL       0.140500
     49 H17         -1.5510    -3.3410    -2.4850 ha         1 UNL       0.137000
     50 H18         -1.7450    -0.9840    -3.1070 ha         1 UNL       0.135000
     51 H19         -1.3300     1.3890    -2.6290 ha         1 UNL       0.134000
     52 H20         -0.4320     3.1320    -1.2060 ha         1 UNL       0.143000
     53 H21         -1.1010     4.5280     1.8910 ha         1 UNL       0.140500
     54 H22         -1.2520     6.9110     1.3930 ha         1 UNL       0.144500
@<TRIPOS>BOND
     1     1     2 1   
     2     1    33 1   
     3     1    34 1   
     4     1    35 1   
     5     2     3 1   
     6     3     4 ar  
     7     3    32 ar  
     8     4     5 ar  
     9     4    36 1   
    10     5     6 ar  
    11     5    37 1   
    12     6     7 1   
    13     6    31 ar  
    14     7     8 ar  
    15     7    28 ar  
    16     8     9 ar  
    17     8    38 1   
    18     9    10 ar  
    19     9    39 1   
    20    10    11 ar  
    21    10    29 ar  
    22    11    12 ar  
    23    11    40 1   
    24    12    13 ar  
    25    12    41 1   
    26    13    14 ar  
    27    13    30 ar  
    28    14    15 1   
    29    14    23 ar  
    30    15    16 ar  
    31    15    22 ar  
    32    16    17 ar  
    33    16    42 1   
    34    17    18 ar  
    35    17    43 1   
    36    18    19 1   
    37    18    21 ar  
    38    19    20 1   
    39    20    44 1   
    40    20    45 1   
    41    20    46 1   
    42    21    22 ar  
    43    21    47 1   
    44    22    48 1   
    45    23    24 ar  
    46    23    49 1   
    47    24    25 ar  
    48    24    50 1   
    49    25    26 ar  
    50    25    30 ar  
    51    26    27 ar  
    52    26    51 1   
    53    27    28 ar  
    54    27    52 1   
    55    28    29 ar  
    56    29    30 ar  
    57    31    32 ar  
    58    31    53 1   
    59    32    54 1   
@<TRIPOS>SUBSTRUCTURE
     1 UNL         1 TEMP              0 ****  ****    0 ROOT
