@<TRIPOS>MOLECULE
UNL
   57    59     1     0     0
SMALL
bcc


@<TRIPOS>ATOM
      1 O1           0.0010    -8.8920    -1.3210 oh         1 UNL      -0.598800
      2 C1           1.3810    -8.7280    -1.6460 c3         1 UNL       0.132400
      3 C2           1.5270    -7.6820    -2.7440 c3         1 UNL       0.085900
      4 O2           0.9940    -6.4480    -2.2480 os         1 UNL      -0.433600
      5 C3           1.0630    -5.4160    -3.2300 c3         1 UNL       0.176700
      6 C4           0.4970    -4.1520    -2.6400 ca         1 UNL      -0.083300
      7 C5           1.1190    -3.5420    -1.5440 ca         1 UNL      -0.115500
      8 C6           0.6040    -2.3630    -0.9970 ca         1 UNL      -0.117250
      9 C7          -0.5480    -1.7610    -1.5270 cp         1 UNL      -0.042000
     10 C8          -1.0910    -0.5200    -0.9500 cp         1 UNL      -0.049000
     11 C9          -2.4330    -0.4360    -0.5500 ca         1 UNL      -0.060500
     12 C10         -2.9440     0.7440     0.0020 ca         1 UNL      -0.135600
     13 C11         -4.3570     0.8600     0.4380 c          1 UNL       0.651700
     14 O3          -4.8640     1.8340     0.9610 o          1 UNL      -0.553000
     15 O4          -5.0730    -0.2520     0.1930 oh         1 UNL      -0.607100
     16 C12         -2.1120     1.8590     0.1600 ca         1 UNL      -0.060500
     17 C13         -0.7650     1.8140    -0.2290 cp         1 UNL      -0.049000
     18 C14          0.1120     2.9860    -0.0670 cp         1 UNL      -0.042000
     19 C15          0.2230     3.6430     1.1690 ca         1 UNL      -0.117250
     20 C16          1.0580     4.7540     1.3270 ca         1 UNL      -0.115500
     21 C17          1.8140     5.2360     0.2520 ca         1 UNL      -0.083300
     22 C18          2.6860     6.4550     0.4150 c3         1 UNL       0.176700
     23 O5           3.9470     6.2280    -0.2150 os         1 UNL      -0.433600
     24 C19          4.8130     7.3610    -0.0810 c3         1 UNL       0.085900
     25 C20          6.1290     7.0270    -0.7750 c3         1 UNL       0.132400
     26 O6           6.7200     5.8830    -0.1600 oh         1 UNL      -0.598800
     27 C21          1.7000     4.5940    -0.9870 ca         1 UNL      -0.115500
     28 C22          0.8650     3.4830    -1.1420 ca         1 UNL      -0.117250
     29 C23         -0.2760     0.6150    -0.7810 ca         1 UNL      -0.077000
     30 C24         -1.1670    -2.3820    -2.6240 ca         1 UNL      -0.117250
     31 C25         -0.6530    -3.5610    -3.1740 ca         1 UNL      -0.115500
     32 H1          -0.3370    -7.9840    -1.1840 ho         1 UNL       0.413500
     33 H2           1.9000    -8.4150    -0.7350 h1         1 UNL       0.053700
     34 H3           1.7780    -9.6940    -1.9700 h1         1 UNL       0.053700
     35 H4           0.9540    -7.9850    -3.6280 h1         1 UNL       0.040200
     36 H5           2.5810    -7.5520    -3.0090 h1         1 UNL       0.040200
     37 H6           2.1050    -5.2440    -3.5260 h1         1 UNL       0.039950
     38 H7           0.4960    -5.7170    -4.1180 h1         1 UNL       0.039950
     39 H8           2.0060    -3.9920    -1.1020 ha         1 UNL       0.142000
     40 H9           1.1050    -1.9230    -0.1360 ha         1 UNL       0.138000
     41 H10         -3.0780    -1.3070    -0.6580 ha         1 UNL       0.161000
     42 H11         -5.9670    -0.0340     0.5290 ho         1 UNL       0.447000
     43 H12         -2.5230     2.7760     0.5800 ha         1 UNL       0.161000
     44 H13         -0.3380     3.2850     2.0310 ha         1 UNL       0.138000
     45 H14          1.1150     5.2350     2.3010 ha         1 UNL       0.142000
     46 H15          2.8530     6.6640     1.4780 h1         1 UNL       0.039950
     47 H16          2.1870     7.3160    -0.0440 h1         1 UNL       0.039950
     48 H17          4.3520     8.2400    -0.5430 h1         1 UNL       0.040200
     49 H18          4.9890     7.5470     0.9840 h1         1 UNL       0.040200
     50 H19          5.9630     6.7860    -1.8300 h1         1 UNL       0.053700
     51 H20          6.8320     7.8610    -0.7050 h1         1 UNL       0.053700
     52 H21          5.9980     5.2270    -0.0960 ho         1 UNL       0.413500
     53 H22          2.2680     4.9560    -1.8420 ha         1 UNL       0.142000
     54 H23          0.7990     3.0120    -2.1210 ha         1 UNL       0.138000
     55 H24          0.7690     0.5640    -1.0870 ha         1 UNL       0.146000
     56 H25         -2.0590    -1.9430    -3.0680 ha         1 UNL       0.138000
     57 H26         -1.1630    -4.0130    -4.0220 ha         1 UNL       0.142000
@<TRIPOS>BOND
     1     1     2 1   
     2     1    32 1   
     3     2     3 1   
     4     2    33 1   
     5     2    34 1   
     6     3     4 1   
     7     3    35 1   
     8     3    36 1   
     9     4     5 1   
    10     5     6 1   
    11     5    37 1   
    12     5    38 1   
    13     6     7 ar  
    14     6    31 ar  
    15     7     8 ar  
    16     7    39 1   
    17     8     9 ar  
    18     8    40 1   
    19     9    10 1   
    20     9    30 ar  
    21    10    11 ar  
    22    10    29 ar  
    23    11    12 ar  
    24    11    41 1   
    25    12    13 1   
    26    12    16 ar  
    27    13    14 2   
    28    13    15 1   
    29    15    42 1   
    30    16    17 ar  
    31    16    43 1   
    32    17    18 1   
    33    17    29 ar  
    34    18    19 ar  
    35    18    28 ar  
    36    19    20 ar  
    37    19    44 1   
    38    20    21 ar  
    39    20    45 1   
    40    21    22 1   
    41    21    27 ar  
    42    22    23 1   
    43    22    46 1   
    44    22    47 1   
    45    23    24 1   
    46    24    25 1   
    47    24    48 1   
    48    24    49 1   
    49    25    26 1   
    50    25    50 1   
    51    25    51 1   
    52    26    52 1   
    53    27    28 ar  
    54    27    53 1   
    55    28    54 1   
    56    29    55 1   
    57    30    31 ar  
    58    30    56 1   
    59    31    57 1   
@<TRIPOS>SUBSTRUCTURE
     1 UNL         1 TEMP              0 ****  ****    0 ROOT
