@<TRIPOS>MOLECULE
UNL
   57    59     1     0     0
SMALL
bcc


@<TRIPOS>ATOM
      1 O1           5.9190     2.5880     5.1410 oh         1 UNL      -0.595800
      2 C1           6.2290     3.4240     4.0270 c3         1 UNL       0.128900
      3 C2           6.5210     2.5590     2.8060 c3         1 UNL       0.085400
      4 O2           5.3560     1.7720     2.5360 os         1 UNL      -0.424600
      5 C3           5.5450     0.9300     1.3990 c3         1 UNL       0.174700
      6 C4           4.3200     0.0720     1.2200 ca         1 UNL      -0.100800
      7 C5           3.9080    -0.7950     2.2390 ca         1 UNL      -0.117250
      8 C6           2.7810    -1.6070     2.0730 ca         1 UNL      -0.117750
      9 C7           2.0370    -1.5790     0.8830 cp         1 UNL      -0.041000
     10 C8           0.8510    -2.4350     0.7080 cp         1 UNL      -0.050000
     11 C9           0.9220    -3.8190     0.9280 ca         1 UNL      -0.060000
     12 C10         -0.2060    -4.6300     0.7570 ca         1 UNL      -0.135600
     13 C11         -0.1600    -6.0960     0.9790 c          1 UNL       0.651700
     14 O3          -1.0820    -6.8720     0.8070 o          1 UNL      -0.553000
     15 O4           1.0410    -6.5230     1.4070 oh         1 UNL      -0.607100
     16 C12         -1.4230    -4.0610     0.3630 ca         1 UNL      -0.060000
     17 C13         -1.5330    -2.6810     0.1340 cp         1 UNL      -0.050000
     18 C14         -2.8130    -2.0800    -0.2790 cp         1 UNL      -0.041000
     19 C15         -3.5330    -2.5880    -1.3730 ca         1 UNL      -0.117750
     20 C16         -4.7490    -2.0200    -1.7670 ca         1 UNL      -0.117250
     21 C17         -5.2750    -0.9220    -1.0790 ca         1 UNL      -0.100800
     22 C18         -6.5950    -0.3160    -1.4900 c3         1 UNL       0.174700
     23 O5          -6.5140     1.1070    -1.5970 os         1 UNL      -0.424600
     24 C19         -5.9070     1.5300    -2.8160 c3         1 UNL       0.085400
     25 C20         -5.8620     3.0540    -2.8520 c3         1 UNL       0.128900
     26 O6          -5.2070     3.5170    -4.0270 oh         1 UNL      -0.595800
     27 C21         -4.5700    -0.4140     0.0180 ca         1 UNL      -0.117250
     28 C22         -3.3540    -0.9840     0.4100 ca         1 UNL      -0.117750
     29 C23         -0.3840    -1.8880     0.3130 ca         1 UNL      -0.078000
     30 C24          2.4570    -0.7060    -0.1330 ca         1 UNL      -0.117750
     31 C25          3.5840     0.1080     0.0310 ca         1 UNL      -0.117250
     32 H1           5.2400     1.9670     4.8090 ho         1 UNL       0.405500
     33 H2           5.3660     4.0720     3.8490 h1         1 UNL       0.055950
     34 H3           7.0940     4.0410     4.2860 h1         1 UNL       0.055950
     35 H4           7.3600     1.8860     3.0160 h1         1 UNL       0.038450
     36 H5           6.7560     3.1890     1.9410 h1         1 UNL       0.038450
     37 H6           5.7160     1.5540     0.5140 h1         1 UNL       0.049950
     38 H7           6.4180     0.2830     1.5450 h1         1 UNL       0.049950
     39 H8           4.4600    -0.8350     3.1760 ha         1 UNL       0.141750
     40 H9           2.4820    -2.2590     2.8920 ha         1 UNL       0.138000
     41 H10          1.8700    -4.2660     1.2220 ha         1 UNL       0.161500
     42 H11          0.9220    -7.4910     1.5110 ho         1 UNL       0.448000
     43 H12         -2.2970    -4.7000     0.2450 ha         1 UNL       0.161500
     44 H13         -3.1440    -3.4340    -1.9370 ha         1 UNL       0.138000
     45 H14         -5.2770    -2.4440    -2.6180 ha         1 UNL       0.141750
     46 H15         -6.9700    -0.7440    -2.4270 h1         1 UNL       0.049950
     47 H16         -7.3340    -0.5460    -0.7140 h1         1 UNL       0.049950
     48 H17         -6.4790     1.1590    -3.6740 h1         1 UNL       0.038450
     49 H18         -4.8890     1.1330    -2.8980 h1         1 UNL       0.038450
     50 H19         -6.8780     3.4630    -2.8360 h1         1 UNL       0.055950
     51 H20         -5.3440     3.4530    -1.9730 h1         1 UNL       0.055950
     52 H21         -4.2660     3.2830    -3.9420 ho         1 UNL       0.405500
     53 H22         -4.9670     0.4340     0.5750 ha         1 UNL       0.141750
     54 H23         -2.8380    -0.5690     1.2730 ha         1 UNL       0.138000
     55 H24         -0.4530    -0.8140     0.1410 ha         1 UNL       0.144000
     56 H25          1.9130    -0.6610    -1.0740 ha         1 UNL       0.138000
     57 H26          3.8780     0.7710    -0.7810 ha         1 UNL       0.141750
@<TRIPOS>BOND
     1     1     2 1   
     2     1    32 1   
     3     2     3 1   
     4     2    33 1   
     5     2    34 1   
     6     3     4 1   
     7     3    35 1   
     8     3    36 1   
     9     4     5 1   
    10     5     6 1   
    11     5    37 1   
    12     5    38 1   
    13     6     7 ar  
    14     6    31 ar  
    15     7     8 ar  
    16     7    39 1   
    17     8     9 ar  
    18     8    40 1   
    19     9    10 1   
    20     9    30 ar  
    21    10    11 ar  
    22    10    29 ar  
    23    11    12 ar  
    24    11    41 1   
    25    12    13 1   
    26    12    16 ar  
    27    13    14 2   
    28    13    15 1   
    29    15    42 1   
    30    16    17 ar  
    31    16    43 1   
    32    17    18 1   
    33    17    29 ar  
    34    18    19 ar  
    35    18    28 ar  
    36    19    20 ar  
    37    19    44 1   
    38    20    21 ar  
    39    20    45 1   
    40    21    22 1   
    41    21    27 ar  
    42    22    23 1   
    43    22    46 1   
    44    22    47 1   
    45    23    24 1   
    46    24    25 1   
    47    24    48 1   
    48    24    49 1   
    49    25    26 1   
    50    25    50 1   
    51    25    51 1   
    52    26    52 1   
    53    27    28 ar  
    54    27    53 1   
    55    28    54 1   
    56    29    55 1   
    57    30    31 ar  
    58    30    56 1   
    59    31    57 1   
@<TRIPOS>SUBSTRUCTURE
     1 UNL         1 TEMP              0 ****  ****    0 ROOT
