@<TRIPOS>MOLECULE
UNL
   57    59     1     0     0
SMALL
bcc


@<TRIPOS>ATOM
      1 O1           3.6330     6.8630    -4.4530 oh         1 UNL      -0.600300
      2 C1           3.9580     5.4840    -4.3240 c3         1 UNL       0.114400
      3 C2           2.7280     4.6240    -4.5870 c3         1 UNL       0.119400
      4 O2           3.0890     3.2470    -4.4760 os         1 UNL      -0.418100
      5 C3           1.9770     2.3740    -4.6830 c3         1 UNL       0.171700
      6 C4           1.1290     2.2420    -3.4420 ca         1 UNL      -0.116800
      7 C5          -0.2650     2.3280    -3.5180 ca         1 UNL      -0.118250
      8 C6          -1.0500     2.1880    -2.3680 ca         1 UNL      -0.116500
      9 C7          -0.4650     1.9510    -1.1140 cp         1 UNL      -0.040500
     10 C8          -1.2930     1.8060     0.0950 cp         1 UNL      -0.050000
     11 C9          -2.2340     2.7850     0.4470 ca         1 UNL      -0.060000
     12 C10         -3.0210     2.6430     1.5960 ca         1 UNL      -0.135600
     13 C11         -4.0220     3.6630     1.9920 c          1 UNL       0.651700
     14 O3          -4.7360     3.6160     2.9770 o          1 UNL      -0.552000
     15 O4          -4.0870     4.6950     1.1330 oh         1 UNL      -0.607100
     16 C12         -2.8710     1.5130     2.4090 ca         1 UNL      -0.060000
     17 C13         -1.9400     0.5130     2.0900 cp         1 UNL      -0.050000
     18 C14         -1.7830    -0.6770     2.9430 cp         1 UNL      -0.040500
     19 C15         -2.8890    -1.4620     3.3030 ca         1 UNL      -0.116500
     20 C16         -2.7390    -2.5910     4.1140 ca         1 UNL      -0.118250
     21 C17         -1.4760    -2.9700     4.5830 ca         1 UNL      -0.116800
     22 C18         -1.3210    -4.1810     5.4700 c3         1 UNL       0.171700
     23 O5          -1.9490    -5.3450     4.9390 os         1 UNL      -0.418100
     24 C19         -1.3660    -5.8790     3.7460 c3         1 UNL       0.119400
     25 C20          0.0770    -6.3680     3.8950 c3         1 UNL       0.114400
     26 O6           0.1620    -7.4000     4.8730 oh         1 UNL      -0.600300
     27 C21         -0.3680    -2.1900     4.2370 ca         1 UNL      -0.118250
     28 C22         -0.5210    -1.0600     3.4260 ca         1 UNL      -0.116500
     29 C23         -1.1630     0.6800     0.9290 ca         1 UNL      -0.077000
     30 C24          0.9340     1.8570    -1.0490 ca         1 UNL      -0.116500
     31 C25          1.7210     1.9970    -2.1970 ca         1 UNL      -0.118250
     32 H1           4.4450     7.3610    -4.2580 ho         1 UNL       0.404500
     33 H2           4.3430     5.2990    -3.3150 h1         1 UNL       0.030950
     34 H3           4.7550     5.2380    -5.0340 h1         1 UNL       0.030950
     35 H4           2.3410     4.8300    -5.5920 h1         1 UNL       0.056200
     36 H5           1.9410     4.8790    -3.8680 h1         1 UNL       0.056200
     37 H6           1.3910     2.7080    -5.5480 h1         1 UNL       0.058950
     38 H7           2.3780     1.3840    -4.9290 h1         1 UNL       0.058950
     39 H8          -0.7560     2.5060    -4.4730 ha         1 UNL       0.140750
     40 H9          -2.1320     2.2550    -2.4630 ha         1 UNL       0.136750
     41 H10         -2.3430     3.6710    -0.1770 ha         1 UNL       0.161500
     42 H11         -4.7740     5.2780     1.5190 ho         1 UNL       0.447000
     43 H12         -3.4790     1.4180     3.3080 ha         1 UNL       0.161500
     44 H13         -3.8840    -1.2060     2.9450 ha         1 UNL       0.136750
     45 H14         -3.6150    -3.1840     4.3740 ha         1 UNL       0.140750
     46 H15         -1.8080    -3.9610     6.4280 h1         1 UNL       0.058950
     47 H16         -0.2720    -4.3860     5.7050 h1         1 UNL       0.058950
     48 H17         -1.4370    -5.1460     2.9360 h1         1 UNL       0.056200
     49 H18         -1.9960    -6.7310     3.4650 h1         1 UNL       0.056200
     50 H19          0.7510    -5.5600     4.1920 h1         1 UNL       0.030950
     51 H20          0.4270    -6.7750     2.9410 h1         1 UNL       0.030950
     52 H21          1.0930    -7.6760     4.9230 ho         1 UNL       0.404500
     53 H22          0.6240    -2.4490     4.6000 ha         1 UNL       0.140750
     54 H23          0.3590    -0.4670     3.1840 ha         1 UNL       0.136750
     55 H24         -0.4530    -0.1000     0.6530 ha         1 UNL       0.145000
     56 H25          1.4280     1.6850    -0.0950 ha         1 UNL       0.136750
     57 H26          2.8040     1.9230    -2.1150 ha         1 UNL       0.140750
@<TRIPOS>BOND
     1     1     2 1   
     2     1    32 1   
     3     2     3 1   
     4     2    33 1   
     5     2    34 1   
     6     3     4 1   
     7     3    35 1   
     8     3    36 1   
     9     4     5 1   
    10     5     6 1   
    11     5    37 1   
    12     5    38 1   
    13     6     7 ar  
    14     6    31 ar  
    15     7     8 ar  
    16     7    39 1   
    17     8     9 ar  
    18     8    40 1   
    19     9    10 1   
    20     9    30 ar  
    21    10    11 ar  
    22    10    29 ar  
    23    11    12 ar  
    24    11    41 1   
    25    12    13 1   
    26    12    16 ar  
    27    13    14 2   
    28    13    15 1   
    29    15    42 1   
    30    16    17 ar  
    31    16    43 1   
    32    17    18 1   
    33    17    29 ar  
    34    18    19 ar  
    35    18    28 ar  
    36    19    20 ar  
    37    19    44 1   
    38    20    21 ar  
    39    20    45 1   
    40    21    22 1   
    41    21    27 ar  
    42    22    23 1   
    43    22    46 1   
    44    22    47 1   
    45    23    24 1   
    46    24    25 1   
    47    24    48 1   
    48    24    49 1   
    49    25    26 1   
    50    25    50 1   
    51    25    51 1   
    52    26    52 1   
    53    27    28 ar  
    54    27    53 1   
    55    28    54 1   
    56    29    55 1   
    57    30    31 ar  
    58    30    56 1   
    59    31    57 1   
@<TRIPOS>SUBSTRUCTURE
     1 UNL         1 TEMP              0 ****  ****    0 ROOT
