@<TRIPOS>MOLECULE
UNL
   57    59     1     0     0
SMALL
bcc


@<TRIPOS>ATOM
      1 O1           7.5450    -0.5810    -6.4150 oh         1 UNL      -0.597300
      2 C1           7.6680     0.3640    -5.3590 c3         1 UNL       0.110400
      3 C2           7.1420    -0.2120    -4.0480 c3         1 UNL       0.104900
      4 O2           7.2300     0.7820    -3.0290 os         1 UNL      -0.415100
      5 C3           6.7750     0.3080    -1.7600 c3         1 UNL       0.170200
      6 C4           5.2690     0.3030    -1.6690 ca         1 UNL      -0.115300
      7 C5           4.5880    -0.8120    -1.1670 ca         1 UNL      -0.118250
      8 C6           3.1930    -0.8060    -1.0690 ca         1 UNL      -0.118500
      9 C7           2.4400     0.3120    -1.4620 cp         1 UNL      -0.041500
     10 C8           0.9710     0.3120    -1.3580 cp         1 UNL      -0.049500
     11 C9           0.1680     0.6370    -2.4610 ca         1 UNL      -0.060500
     12 C10         -1.2290     0.6290    -2.3620 ca         1 UNL      -0.135600
     13 C11         -2.0180     0.9810    -3.5670 c          1 UNL       0.651700
     14 O3          -1.5610     1.2990    -4.6490 o          1 UNL      -0.552000
     15 O4          -3.3450     0.9170    -3.3620 oh         1 UNL      -0.607100
     16 C12         -1.8410     0.2940    -1.1470 ca         1 UNL      -0.060500
     17 C13         -1.0700    -0.0330    -0.0220 cp         1 UNL      -0.049500
     18 C14         -1.7080    -0.3830     1.2580 cp         1 UNL      -0.041500
     19 C15         -1.3730     0.2910     2.4420 ca         1 UNL      -0.118500
     20 C16         -1.9760    -0.0410     3.6600 ca         1 UNL      -0.118250
     21 C17         -2.9400    -1.0540     3.7240 ca         1 UNL      -0.115300
     22 C18         -3.5710    -1.4250     5.0440 c3         1 UNL       0.170200
     23 O5          -4.9510    -1.7570     4.8940 os         1 UNL      -0.415100
     24 C19         -5.8470    -0.6890     5.2010 c3         1 UNL       0.104900
     25 C20         -5.8920     0.3940     4.1250 c3         1 UNL       0.110400
     26 O6          -6.8920     1.3550     4.4440 oh         1 UNL      -0.597300
     27 C21         -3.2680    -1.7430     2.5490 ca         1 UNL      -0.118250
     28 C22         -2.6650    -1.4070     1.3330 ca         1 UNL      -0.118500
     29 C23          0.3310    -0.0180    -0.1490 ca         1 UNL      -0.077000
     30 C24          3.1320     1.4280    -1.9570 ca         1 UNL      -0.118500
     31 C25          4.5270     1.4260    -2.0550 ca         1 UNL      -0.118250
     32 H1           6.5960    -0.6710    -6.6110 ho         1 UNL       0.401000
     33 H2           8.7240     0.6340    -5.2560 h1         1 UNL       0.046200
     34 H3           7.1300     1.2780    -5.6310 h1         1 UNL       0.046200
     35 H4           6.1040    -0.5360    -4.1810 h1         1 UNL       0.049200
     36 H5           7.7340    -1.0930    -3.7710 h1         1 UNL       0.049200
     37 H6           7.2010    -0.6810    -1.5550 h1         1 UNL       0.058950
     38 H7           7.1620     0.9900    -0.9950 h1         1 UNL       0.058950
     39 H8           5.1360    -1.6970    -0.8510 ha         1 UNL       0.142000
     40 H9           2.6930    -1.6950    -0.6890 ha         1 UNL       0.138250
     41 H10          0.6330     0.8870    -3.4140 ha         1 UNL       0.161000
     42 H11         -3.7290     1.1690    -4.2280 ho         1 UNL       0.448000
     43 H12         -2.9260     0.2980    -1.0690 ha         1 UNL       0.161000
     44 H13         -0.6380     1.0940     2.4240 ha         1 UNL       0.138250
     45 H14         -1.6870     0.5030     4.5570 ha         1 UNL       0.142000
     46 H15         -3.0600    -2.3180     5.4200 h1         1 UNL       0.058950
     47 H16         -3.4380    -0.6340     5.7920 h1         1 UNL       0.058950
     48 H17         -6.8470    -1.1280     5.2980 h1         1 UNL       0.049200
     49 H18         -5.6160    -0.2620     6.1840 h1         1 UNL       0.049200
     50 H19         -4.9340     0.9140     4.0500 h1         1 UNL       0.046200
     51 H20         -6.1170    -0.0460     3.1480 h1         1 UNL       0.046200
     52 H21         -6.9130     1.9920     3.7090 ho         1 UNL       0.401000
     53 H22         -4.0000    -2.5480     2.5770 ha         1 UNL       0.142000
     54 H23         -2.9410    -1.9660     0.4420 ha         1 UNL       0.138250
     55 H24          0.9420    -0.2710     0.7180 ha         1 UNL       0.145000
     56 H25          2.5890     2.3200    -2.2620 ha         1 UNL       0.138250
     57 H26          5.0370     2.3080    -2.4400 ha         1 UNL       0.142000
@<TRIPOS>BOND
     1     1     2 1   
     2     1    32 1   
     3     2     3 1   
     4     2    33 1   
     5     2    34 1   
     6     3     4 1   
     7     3    35 1   
     8     3    36 1   
     9     4     5 1   
    10     5     6 1   
    11     5    37 1   
    12     5    38 1   
    13     6     7 ar  
    14     6    31 ar  
    15     7     8 ar  
    16     7    39 1   
    17     8     9 ar  
    18     8    40 1   
    19     9    10 1   
    20     9    30 ar  
    21    10    11 ar  
    22    10    29 ar  
    23    11    12 ar  
    24    11    41 1   
    25    12    13 1   
    26    12    16 ar  
    27    13    14 2   
    28    13    15 1   
    29    15    42 1   
    30    16    17 ar  
    31    16    43 1   
    32    17    18 1   
    33    17    29 ar  
    34    18    19 ar  
    35    18    28 ar  
    36    19    20 ar  
    37    19    44 1   
    38    20    21 ar  
    39    20    45 1   
    40    21    22 1   
    41    21    27 ar  
    42    22    23 1   
    43    22    46 1   
    44    22    47 1   
    45    23    24 1   
    46    24    25 1   
    47    24    48 1   
    48    24    49 1   
    49    25    26 1   
    50    25    50 1   
    51    25    51 1   
    52    26    52 1   
    53    27    28 ar  
    54    27    53 1   
    55    28    54 1   
    56    29    55 1   
    57    30    31 ar  
    58    30    56 1   
    59    31    57 1   
@<TRIPOS>SUBSTRUCTURE
     1 UNL         1 TEMP              0 ****  ****    0 ROOT
