@<TRIPOS>MOLECULE
UNL
   57    59     1     0     0
SMALL
bcc


@<TRIPOS>ATOM
      1 O1           5.7350    -6.4290    -0.7840 oh         1 UNL      -0.600300
      2 C1           5.0830    -7.0260    -1.9050 c3         1 UNL       0.131900
      3 C2           3.6900    -6.4270    -2.0710 c3         1 UNL       0.079400
      4 O2           2.9470    -6.7050    -0.8760 os         1 UNL      -0.430100
      5 C3           1.6060    -6.2130    -0.9400 c3         1 UNL       0.175200
      6 C4           1.5390    -4.7260    -0.6930 ca         1 UNL      -0.118300
      7 C5           2.1610    -4.1620     0.4260 ca         1 UNL      -0.119500
      8 C6           2.0930    -2.7850     0.6600 ca         1 UNL      -0.116000
      9 C7           1.3960    -1.9340    -0.2130 cp         1 UNL      -0.040000
     10 C8           1.3290    -0.4830     0.0310 cp         1 UNL      -0.050500
     11 C9           2.4930     0.2660     0.2600 ca         1 UNL      -0.060000
     12 C10          2.4260     1.6450     0.4930 ca         1 UNL      -0.135600
     13 C11          3.6390     2.4610     0.7390 c          1 UNL       0.651700
     14 O3           3.6630     3.6600     0.9450 o          1 UNL      -0.553000
     15 O4           4.7700     1.7340     0.7210 oh         1 UNL      -0.606100
     16 C12          1.1840     2.2920     0.4960 ca         1 UNL      -0.060000
     17 C13         -0.0020     1.5780     0.2700 cp         1 UNL      -0.050500
     18 C14         -1.3080     2.2580     0.2720 cp         1 UNL      -0.040000
     19 C15         -2.1970     2.1210    -0.8060 ca         1 UNL      -0.116000
     20 C16         -3.4370     2.7690    -0.8100 ca         1 UNL      -0.119500
     21 C17         -3.8180     3.5770     0.2670 ca         1 UNL      -0.118300
     22 C18         -5.1590     4.2690     0.2740 c3         1 UNL       0.175200
     23 O5          -5.0420     5.6530     0.6050 os         1 UNL      -0.430100
     24 C19         -4.5840     6.4470    -0.4970 c3         1 UNL       0.079400
     25 C20         -4.6020     7.9180    -0.0900 c3         1 UNL       0.131900
     26 O6          -5.9400     8.4160    -0.1090 oh         1 UNL      -0.600300
     27 C21         -2.9420     3.7130     1.3500 ca         1 UNL      -0.119500
     28 C22         -1.7030     3.0650     1.3500 ca         1 UNL      -0.116000
     29 C23          0.0940     0.1930     0.0420 ca         1 UNL      -0.077000
     30 C24          0.7670    -2.5120    -1.3270 ca         1 UNL      -0.116000
     31 C25          0.8340    -3.8890    -1.5650 ca         1 UNL      -0.119500
     32 H1           5.0710    -6.4470    -0.0670 ho         1 UNL       0.412000
     33 H2           5.6940    -6.8490    -2.7950 h1         1 UNL       0.053700
     34 H3           5.0250    -8.1020    -1.7180 h1         1 UNL       0.053700
     35 H4           3.1900    -6.8760    -2.9360 h1         1 UNL       0.044200
     36 H5           3.7680    -5.3430    -2.2060 h1         1 UNL       0.044200
     37 H6           1.0340    -6.7170    -0.1530 h1         1 UNL       0.059450
     38 H7           1.1490    -6.4920    -1.8970 h1         1 UNL       0.059450
     39 H8           2.7090    -4.7940     1.1210 ha         1 UNL       0.141750
     40 H9           2.5860    -2.3810     1.5430 ha         1 UNL       0.137500
     41 H10          3.4610    -0.2320     0.2450 ha         1 UNL       0.162000
     42 H11          5.4770     2.3910     0.8970 ho         1 UNL       0.448000
     43 H12          1.1430     3.3680     0.6660 ha         1 UNL       0.162000
     44 H13         -1.9230     1.5120    -1.6650 ha         1 UNL       0.137500
     45 H14         -4.0980     2.6400    -1.6640 ha         1 UNL       0.141750
     46 H15         -5.6870     4.1530    -0.6800 h1         1 UNL       0.059450
     47 H16         -5.7820     3.7990     1.0430 h1         1 UNL       0.059450
     48 H17         -5.2390     6.2860    -1.3600 h1         1 UNL       0.044200
     49 H18         -3.5600     6.1540    -0.7470 h1         1 UNL       0.044200
     50 H19         -4.0190     8.5150    -0.7970 h1         1 UNL       0.053700
     51 H20         -4.2010     8.0480     0.9200 h1         1 UNL       0.053700
     52 H21         -5.9300     9.2680     0.3590 ho         1 UNL       0.412000
     53 H22         -3.2230     4.3320     2.2010 ha         1 UNL       0.141750
     54 H23         -1.0500     3.1890     2.2120 ha         1 UNL       0.137500
     55 H24         -0.8220    -0.3800    -0.1070 ha         1 UNL       0.145000
     56 H25          0.2250    -1.8860    -2.0330 ha         1 UNL       0.137500
     57 H26          0.3340    -4.2970    -2.4400 ha         1 UNL       0.141750
@<TRIPOS>BOND
     1     1     2 1   
     2     1    32 1   
     3     2     3 1   
     4     2    33 1   
     5     2    34 1   
     6     3     4 1   
     7     3    35 1   
     8     3    36 1   
     9     4     5 1   
    10     5     6 1   
    11     5    37 1   
    12     5    38 1   
    13     6     7 ar  
    14     6    31 ar  
    15     7     8 ar  
    16     7    39 1   
    17     8     9 ar  
    18     8    40 1   
    19     9    10 1   
    20     9    30 ar  
    21    10    11 ar  
    22    10    29 ar  
    23    11    12 ar  
    24    11    41 1   
    25    12    13 1   
    26    12    16 ar  
    27    13    14 2   
    28    13    15 1   
    29    15    42 1   
    30    16    17 ar  
    31    16    43 1   
    32    17    18 1   
    33    17    29 ar  
    34    18    19 ar  
    35    18    28 ar  
    36    19    20 ar  
    37    19    44 1   
    38    20    21 ar  
    39    20    45 1   
    40    21    22 1   
    41    21    27 ar  
    42    22    23 1   
    43    22    46 1   
    44    22    47 1   
    45    23    24 1   
    46    24    25 1   
    47    24    48 1   
    48    24    49 1   
    49    25    26 1   
    50    25    50 1   
    51    25    51 1   
    52    26    52 1   
    53    27    28 ar  
    54    27    53 1   
    55    28    54 1   
    56    29    55 1   
    57    30    31 ar  
    58    30    56 1   
    59    31    57 1   
@<TRIPOS>SUBSTRUCTURE
     1 UNL         1 TEMP              0 ****  ****    0 ROOT
