MODEL 1
REMARK VINA RESULT:   -16.225      0.000      0.000
REMARK INTER + INTRA:         -23.644
REMARK INTER:                 -20.998
REMARK INTRA:                  -2.646
REMARK CONF_INDEPENDENT:        4.773
REMARK UNBOUND:                -2.646
REMARK SMILES C=CCOc1ccc(-c2ccc3ccc4c(-c5ccc(OCC=C)cc5)ccc5ccc2c3c54)cc1
REMARK SMILES IDX 9 1 10 2 11 3 12 4 13 5 14 6 15 7 16 8 27 9 28 10 29 11
REMARK SMILES IDX 30 12 31 13 32 14 33 15 34 16 8 17 5 18 6 19 36 20 7 21
REMARK SMILES IDX 35 22 4 23 3 24 2 25 1 26 17 27 18 28 26 29 19 30 25 31
REMARK SMILES IDX 20 32 21 33 22 34 23 35 24 36
REMARK H PARENT
REMARK Flexibility Score: inf
ROOT
ATOM      1  C   UNL     1       0.711   6.128  -1.562  1.00  0.00    -0.010 A 
ATOM      2  C   UNL     1       0.408   7.434  -1.979  1.00  0.00     0.010 A 
ATOM      3  C   UNL     1       1.304   8.164  -2.754  1.00  0.00     0.009 A 
ATOM      4  C   UNL     1       2.528   7.607  -3.134  1.00  0.00    -0.017 A 
ATOM      5  C   UNL     1       3.425   8.342  -3.913  1.00  0.00     0.009 A 
ATOM      6  C   UNL     1       4.648   7.793  -4.297  1.00  0.00     0.010 A 
ATOM      7  C   UNL     1       5.027   6.489  -3.919  1.00  0.00    -0.009 A 
ATOM      8  C   UNL     1       6.269   5.906  -4.297  1.00  0.00    -0.010 A 
ATOM      9  C   UNL     1       6.571   4.600  -3.882  1.00  0.00     0.010 A 
ATOM     10  C   UNL     1       5.675   3.869  -3.107  1.00  0.00     0.009 A 
ATOM     11  C   UNL     1       4.451   4.425  -2.726  1.00  0.00    -0.017 A 
ATOM     12  C   UNL     1       3.554   3.690  -1.948  1.00  0.00     0.009 A 
ATOM     13  C   UNL     1       2.330   4.239  -1.564  1.00  0.00     0.010 A 
ATOM     14  C   UNL     1       1.952   5.544  -1.940  1.00  0.00    -0.009 A 
ATOM     15  C   UNL     1       2.864   6.294  -2.732  1.00  0.00    -0.002 A 
ATOM     16  C   UNL     1       4.116   5.739  -3.128  1.00  0.00    -0.002 A 
ENDROOT
BRANCH   1  17
ATOM     17  C   UNL     1      -0.284   5.415  -0.745  1.00  0.00    -0.018 A 
ATOM     18  C   UNL     1      -2.196   4.056   0.826  1.00  0.00     0.119 A 
ATOM     19  C   UNL     1      -1.931   5.405   1.055  1.00  0.00     0.047 A 
ATOM     20  C   UNL     1      -1.515   3.394  -0.198  1.00  0.00     0.047 A 
ATOM     21  C   UNL     1      -0.981   6.078   0.276  1.00  0.00     0.012 A 
ATOM     22  C   UNL     1      -0.566   4.064  -0.975  1.00  0.00     0.012 A 
BRANCH  18  23
ATOM     23  O   UNL     1      -3.098   3.284   1.501  1.00  0.00    -0.490 OA
BRANCH  23  24
ATOM     24  C   UNL     1      -2.661   2.574   2.661  1.00  0.00     0.257 C 
BRANCH  24  25
ATOM     25  C   UNL     1      -2.101   1.238   2.268  1.00  0.00     0.006 C 
ATOM     26  C   UNL     1      -2.496   0.526   1.204  1.00  0.00     0.007 C 
ENDBRANCH  24  25
ENDBRANCH  23  24
ENDBRANCH  18  23
ENDBRANCH   1  17
BRANCH   8  27
ATOM     27  C   UNL     1       7.265   6.619  -5.114  1.00  0.00    -0.018 A 
ATOM     28  C   UNL     1       8.598   6.718  -4.695  1.00  0.00     0.012 A 
ATOM     29  C   UNL     1       6.897   7.226  -6.323  1.00  0.00     0.012 A 
ATOM     30  C   UNL     1       9.536   7.399  -5.474  1.00  0.00     0.047 A 
ATOM     31  C   UNL     1       7.840   7.908  -7.103  1.00  0.00     0.047 A 
ATOM     32  C   UNL     1       9.167   7.990  -6.685  1.00  0.00     0.119 A 
BRANCH  32  33
ATOM     33  O   UNL     1      10.183   8.627  -7.340  1.00  0.00    -0.490 OA
BRANCH  33  34
ATOM     34  C   UNL     1      10.205  10.055  -7.347  1.00  0.00     0.257 C 
BRANCH  34  35
ATOM     35  C   UNL     1      11.234  10.561  -6.380  1.00  0.00     0.006 C 
ATOM     36  C   UNL     1      11.804   9.828  -5.415  1.00  0.00     0.007 C 
ENDBRANCH  34  35
ENDBRANCH  33  34
ENDBRANCH  32  33
ENDBRANCH   8  27
TORSDOF 8
REMARK SMILES C=CCOc1ccc(-c2ccc3ccc4c(-c5ccc(OCC=C)cc5)ccc5ccc2c3c54)cc1
REMARK SMILES IDX 9 1 10 2 11 3 12 4 13 5 14 6 15 7 16 8 27 9 28 10 29 11
REMARK SMILES IDX 30 12 31 13 32 14 33 15 34 16 8 17 5 18 6 19 36 20 7 21
REMARK SMILES IDX 35 22 4 23 3 24 2 25 1 26 17 27 18 28 26 29 19 30 25 31
REMARK SMILES IDX 20 32 21 33 22 34 23 35 24 36
REMARK H PARENT
REMARK Flexibility Score: inf
ROOT
ATOM      1  C   UNL     1       2.264   6.449   1.550  1.00  0.00    -0.010 A 
ATOM      2  C   UNL     1       1.524   7.632   1.395  1.00  0.00     0.010 A 
ATOM      3  C   UNL     1       2.029   8.701   0.661  1.00  0.00     0.009 A 
ATOM      4  C   UNL     1       3.288   8.616   0.060  1.00  0.00    -0.017 A 
ATOM      5  C   UNL     1       3.792   9.690  -0.677  1.00  0.00     0.009 A 
ATOM      6  C   UNL     1       5.047   9.612  -1.280  1.00  0.00     0.010 A 
ATOM      7  C   UNL     1       5.852   8.460  -1.171  1.00  0.00    -0.009 A 
ATOM      8  C   UNL     1       7.136   8.355  -1.775  1.00  0.00    -0.010 A 
ATOM      9  C   UNL     1       7.875   7.172  -1.622  1.00  0.00     0.010 A 
ATOM     10  C   UNL     1       7.370   6.102  -0.888  1.00  0.00     0.009 A 
ATOM     11  C   UNL     1       6.111   6.186  -0.287  1.00  0.00    -0.017 A 
ATOM     12  C   UNL     1       5.607   5.113   0.449  1.00  0.00     0.009 A 
ATOM     13  C   UNL     1       4.351   5.190   1.052  1.00  0.00     0.010 A 
ATOM     14  C   UNL     1       3.547   6.343   0.945  1.00  0.00    -0.009 A 
ATOM     15  C   UNL     1       4.059   7.438   0.196  1.00  0.00    -0.002 A 
ATOM     16  C   UNL     1       5.341   7.365  -0.422  1.00  0.00    -0.002 A 
ENDROOT
BRANCH   1  17
ATOM     17  C   UNL     1       1.667   5.360   2.339  1.00  0.00    -0.018 A 
ATOM     18  C   UNL     1       0.521   3.276   3.860  1.00  0.00     0.119 A 
ATOM     19  C   UNL     1       0.843   4.490   4.464  1.00  0.00     0.047 A 
ATOM     20  C   UNL     1       0.759   3.112   2.494  1.00  0.00     0.047 A 
ATOM     21  C   UNL     1       1.413   5.523   3.709  1.00  0.00     0.012 A 
ATOM     22  C   UNL     1       1.329   4.141   1.739  1.00  0.00     0.012 A 
BRANCH  18  23
ATOM     23  O   UNL     1      -0.044   2.193   4.472  1.00  0.00    -0.490 OA
BRANCH  23  24
ATOM     24  C   UNL     1       0.792   1.322   5.235  1.00  0.00     0.257 C 
BRANCH  24  25
ATOM     25  C   UNL     1       0.970   0.017   4.516  1.00  0.00     0.006 C 
ATOM     26  C   UNL     1       0.960  -0.131   3.184  1.00  0.00     0.007 C 
ENDBRANCH  24  25
ENDBRANCH  23  24
ENDBRANCH  18  23
ENDBRANCH   1  17
BRANCH   8  27
ATOM     27  C   UNL     1       7.733   9.445  -2.564  1.00  0.00    -0.018 A 
ATOM     28  C   UNL     1       7.265   9.737  -3.852  1.00  0.00     0.012 A 
ATOM     29  C   UNL     1       8.791  10.206  -2.049  1.00  0.00     0.012 A 
ATOM     30  C   UNL     1       7.839  10.771  -4.596  1.00  0.00     0.047 A 
ATOM     31  C   UNL     1       9.364  11.242  -2.797  1.00  0.00     0.047 A 
ATOM     32  C   UNL     1       8.884  11.535  -4.072  1.00  0.00     0.119 A 
BRANCH  32  33
ATOM     33  O   UNL     1       9.353  12.508  -4.909  1.00  0.00    -0.490 OA
BRANCH  33  34
ATOM     34  C   UNL     1       8.414  13.350  -5.576  1.00  0.00     0.257 C 
BRANCH  34  35
ATOM     35  C   UNL     1       8.282  12.940  -7.013  1.00  0.00     0.006 C 
ATOM     36  C   UNL     1       7.269  12.221  -7.515  1.00  0.00     0.007 C 
ENDBRANCH  34  35
ENDBRANCH  33  34
ENDBRANCH  32  33
ENDBRANCH   8  27
TORSDOF 8
ENDMDL
MODEL 2
REMARK VINA RESULT:   -16.159      3.513      6.720
REMARK INTER + INTRA:         -23.488
REMARK INTER:                 -20.932
REMARK INTRA:                  -2.556
REMARK CONF_INDEPENDENT:        4.773
REMARK UNBOUND:                -2.556
REMARK SMILES C=CCOc1ccc(-c2ccc3ccc4c(-c5ccc(OCC=C)cc5)ccc5ccc2c3c54)cc1
REMARK SMILES IDX 9 1 10 2 11 3 12 4 13 5 14 6 15 7 16 8 27 9 28 10 29 11
REMARK SMILES IDX 30 12 31 13 32 14 33 15 34 16 8 17 5 18 6 19 36 20 7 21
REMARK SMILES IDX 35 22 4 23 3 24 2 25 1 26 17 27 18 28 26 29 19 30 25 31
REMARK SMILES IDX 20 32 21 33 22 34 23 35 24 36
REMARK H PARENT
REMARK Flexibility Score: inf
ROOT
ATOM      1  C   UNL     1       2.261   6.218   1.575  1.00  0.00    -0.010 A 
ATOM      2  C   UNL     1       1.720   4.991   1.158  1.00  0.00     0.010 A 
ATOM      3  C   UNL     1       2.419   4.158   0.290  1.00  0.00     0.009 A 
ATOM      4  C   UNL     1       3.679   4.529  -0.185  1.00  0.00    -0.017 A 
ATOM      5  C   UNL     1       4.379   3.690  -1.056  1.00  0.00     0.009 A 
ATOM      6  C   UNL     1       5.638   4.054  -1.535  1.00  0.00     0.010 A 
ATOM      7  C   UNL     1       6.249   5.269  -1.165  1.00  0.00    -0.009 A 
ATOM      8  C   UNL     1       7.532   5.663  -1.640  1.00  0.00    -0.010 A 
ATOM      9  C   UNL     1       8.073   6.889  -1.222  1.00  0.00     0.010 A 
ATOM     10  C   UNL     1       7.375   7.723  -0.353  1.00  0.00     0.009 A 
ATOM     11  C   UNL     1       6.114   7.352   0.123  1.00  0.00    -0.017 A 
ATOM     12  C   UNL     1       5.415   8.190   0.994  1.00  0.00     0.009 A 
ATOM     13  C   UNL     1       4.156   7.826   1.473  1.00  0.00     0.010 A 
ATOM     14  C   UNL     1       3.543   6.612   1.102  1.00  0.00    -0.009 A 
ATOM     15  C   UNL     1       4.253   5.758   0.215  1.00  0.00    -0.002 A 
ATOM     16  C   UNL     1       5.540   6.123  -0.278  1.00  0.00    -0.002 A 
ENDROOT
BRANCH   1  17
ATOM     17  C   UNL     1       1.465   7.047   2.495  1.00  0.00    -0.018 A 
ATOM     18  C   UNL     1      -0.068   8.634   4.256  1.00  0.00     0.119 A 
ATOM     19  C   UNL     1      -0.673   8.012   3.165  1.00  0.00     0.047 A 
ATOM     20  C   UNL     1       1.299   8.449   4.471  1.00  0.00     0.047 A 
ATOM     21  C   UNL     1       0.090   7.226   2.291  1.00  0.00     0.012 A 
ATOM     22  C   UNL     1       2.061   7.666   3.600  1.00  0.00     0.012 A 
BRANCH  18  23
ATOM     23  O   UNL     1      -0.689   9.417   5.186  1.00  0.00    -0.490 OA
BRANCH  23  24
ATOM     24  C   UNL     1      -2.115   9.483   5.186  1.00  0.00     0.257 C 
BRANCH  24  25
ATOM     25  C   UNL     1      -2.568  10.860   4.797  1.00  0.00     0.006 C 
ATOM     26  C   UNL     1      -2.695  11.296   3.536  1.00  0.00     0.007 C 
ENDBRANCH  24  25
ENDBRANCH  23  24
ENDBRANCH  18  23
ENDBRANCH   1  17
BRANCH   8  27
ATOM     27  C   UNL     1       8.327   4.834  -2.560  1.00  0.00    -0.018 A 
ATOM     28  C   UNL     1       8.960   5.403  -3.672  1.00  0.00     0.012 A 
ATOM     29  C   UNL     1       8.457   3.454  -2.350  1.00  0.00     0.012 A 
ATOM     30  C   UNL     1       9.710   4.609  -4.543  1.00  0.00     0.047 A 
ATOM     31  C   UNL     1       9.210   2.661  -3.225  1.00  0.00     0.047 A 
ATOM     32  C   UNL     1       9.848   3.237  -4.321  1.00  0.00     0.119 A 
BRANCH  32  33
ATOM     33  O   UNL     1      10.603   2.583  -5.253  1.00  0.00    -0.490 OA
BRANCH  33  34
ATOM     34  C   UNL     1      10.987   3.281  -6.437  1.00  0.00     0.257 C 
BRANCH  34  35
ATOM     35  C   UNL     1       9.974   3.060  -7.521  1.00  0.00     0.006 C 
ATOM     36  C   UNL     1       9.688   3.934  -8.494  1.00  0.00     0.007 C 
ENDBRANCH  34  35
ENDBRANCH  33  34
ENDBRANCH  32  33
ENDBRANCH   8  27
TORSDOF 8
REMARK SMILES C=CCOc1ccc(-c2ccc3ccc4c(-c5ccc(OCC=C)cc5)ccc5ccc2c3c54)cc1
REMARK SMILES IDX 9 1 10 2 11 3 12 4 13 5 14 6 15 7 16 8 27 9 28 10 29 11
REMARK SMILES IDX 30 12 31 13 32 14 33 15 34 16 8 17 5 18 6 19 36 20 7 21
REMARK SMILES IDX 35 22 4 23 3 24 2 25 1 26 17 27 18 28 26 29 19 30 25 31
REMARK SMILES IDX 20 32 21 33 22 34 23 35 24 36
REMARK H PARENT
REMARK Flexibility Score: inf
ROOT
ATOM      1  C   UNL     1       1.262   8.593  -0.720  1.00  0.00    -0.010 A 
ATOM      2  C   UNL     1       0.353   7.529  -0.833  1.00  0.00     0.010 A 
ATOM      3  C   UNL     1       0.634   6.431  -1.640  1.00  0.00     0.009 A 
ATOM      4  C   UNL     1       1.833   6.366  -2.356  1.00  0.00    -0.017 A 
ATOM      5  C   UNL     1       2.112   5.261  -3.164  1.00  0.00     0.009 A 
ATOM      6  C   UNL     1       3.306   5.190  -3.881  1.00  0.00     0.010 A 
ATOM      7  C   UNL     1       4.270   6.217  -3.822  1.00  0.00    -0.009 A 
ATOM      8  C   UNL     1       5.495   6.168  -4.544  1.00  0.00    -0.010 A 
ATOM      9  C   UNL     1       6.404   7.231  -4.430  1.00  0.00     0.010 A 
ATOM     10  C   UNL     1       6.125   8.330  -3.623  1.00  0.00     0.009 A 
ATOM     11  C   UNL     1       4.926   8.396  -2.906  1.00  0.00    -0.017 A 
ATOM     12  C   UNL     1       4.647   9.499  -2.097  1.00  0.00     0.009 A 
ATOM     13  C   UNL     1       3.452   9.571  -1.379  1.00  0.00     0.010 A 
ATOM     14  C   UNL     1       2.488   8.545  -1.440  1.00  0.00    -0.009 A 
ATOM     15  C   UNL     1       2.770   7.420  -2.264  1.00  0.00    -0.002 A 
ATOM     16  C   UNL     1       3.988   7.341  -2.999  1.00  0.00    -0.002 A 
ENDROOT
BRANCH   1  17
ATOM     17  C   UNL     1       0.899   9.722   0.152  1.00  0.00    -0.018 A 
ATOM     18  C   UNL     1       0.195  11.888   1.821  1.00  0.00     0.119 A 
ATOM     19  C   UNL     1      -0.571  11.592   0.694  1.00  0.00     0.047 A 
ATOM     20  C   UNL     1       1.302  11.091   2.118  1.00  0.00     0.047 A 
ATOM     21  C   UNL     1      -0.219  10.518  -0.134  1.00  0.00     0.012 A 
ATOM     22  C   UNL     1       1.655  10.020   1.292  1.00  0.00     0.012 A 
BRANCH  18  23
ATOM     23  O   UNL     1      -0.037  12.895   2.714  1.00  0.00    -0.490 OA
BRANCH  23  24
ATOM     24  C   UNL     1       0.998  13.251   3.630  1.00  0.00     0.257 C 
BRANCH  24  25
ATOM     25  C   UNL     1       0.747  12.615   4.966  1.00  0.00     0.006 C 
ATOM     26  C   UNL     1       1.702  12.233   5.823  1.00  0.00     0.007 C 
ENDBRANCH  24  25
ENDBRANCH  23  24
ENDBRANCH  18  23
ENDBRANCH   1  17
BRANCH   8  27
ATOM     27  C   UNL     1       5.858   5.040  -5.416  1.00  0.00    -0.018 A 
ATOM     28  C   UNL     1       6.209   3.797  -4.873  1.00  0.00     0.012 A 
ATOM     29  C   UNL     1       5.872   5.187  -6.811  1.00  0.00     0.012 A 
ATOM     30  C   UNL     1       6.555   2.731  -5.707  1.00  0.00     0.047 A 
ATOM     31  C   UNL     1       6.219   4.117  -7.644  1.00  0.00     0.047 A 
ATOM     32  C   UNL     1       6.555   2.881  -7.096  1.00  0.00     0.119 A 
BRANCH  32  33
ATOM     33  O   UNL     1       6.918   1.761  -7.789  1.00  0.00    -0.490 OA
BRANCH  33  34
ATOM     34  C   UNL     1       6.922   0.505  -7.109  1.00  0.00     0.257 C 
BRANCH  34  35
ATOM     35  C   UNL     1       8.308   0.178  -6.636  1.00  0.00     0.006 C 
ATOM     36  C   UNL     1       8.646  -0.062  -5.363  1.00  0.00     0.007 C 
ENDBRANCH  34  35
ENDBRANCH  33  34
ENDBRANCH  32  33
ENDBRANCH   8  27
TORSDOF 8
ENDMDL
MODEL 3
REMARK VINA RESULT:   -15.982      3.287      8.674
REMARK INTER + INTRA:         -23.410
REMARK INTER:                 -20.755
REMARK INTRA:                  -2.655
REMARK CONF_INDEPENDENT:        4.773
REMARK UNBOUND:                -2.655
REMARK SMILES C=CCOc1ccc(-c2ccc3ccc4c(-c5ccc(OCC=C)cc5)ccc5ccc2c3c54)cc1
REMARK SMILES IDX 9 1 10 2 11 3 12 4 13 5 14 6 15 7 16 8 27 9 28 10 29 11
REMARK SMILES IDX 30 12 31 13 32 14 33 15 34 16 8 17 5 18 6 19 36 20 7 21
REMARK SMILES IDX 35 22 4 23 3 24 2 25 1 26 17 27 18 28 26 29 19 30 25 31
REMARK SMILES IDX 20 32 21 33 22 34 23 35 24 36
REMARK H PARENT
REMARK Flexibility Score: inf
ROOT
ATOM      1  C   UNL     1       3.118   6.904   1.132  1.00  0.00    -0.010 A 
ATOM      2  C   UNL     1       2.392   5.711   0.982  1.00  0.00     0.010 A 
ATOM      3  C   UNL     1       2.903   4.651   0.239  1.00  0.00     0.009 A 
ATOM      4  C   UNL     1       4.154   4.755  -0.375  1.00  0.00    -0.017 A 
ATOM      5  C   UNL     1       4.664   3.689  -1.120  1.00  0.00     0.009 A 
ATOM      6  C   UNL     1       5.913   3.785  -1.736  1.00  0.00     0.010 A 
ATOM      7  C   UNL     1       6.702   4.948  -1.633  1.00  0.00    -0.009 A 
ATOM      8  C   UNL     1       7.978   5.072  -2.251  1.00  0.00    -0.010 A 
ATOM      9  C   UNL     1       8.704   6.264  -2.100  1.00  0.00     0.010 A 
ATOM     10  C   UNL     1       8.194   7.324  -1.356  1.00  0.00     0.009 A 
ATOM     11  C   UNL     1       6.943   7.221  -0.742  1.00  0.00    -0.017 A 
ATOM     12  C   UNL     1       6.433   8.286   0.004  1.00  0.00     0.009 A 
ATOM     13  C   UNL     1       5.184   8.190   0.619  1.00  0.00     0.010 A 
ATOM     14  C   UNL     1       4.394   7.028   0.516  1.00  0.00    -0.009 A 
ATOM     15  C   UNL     1       4.911   5.942  -0.244  1.00  0.00    -0.002 A 
ATOM     16  C   UNL     1       6.186   6.034  -0.875  1.00  0.00    -0.002 A 
ENDROOT
BRANCH   1  17
ATOM     17  C   UNL     1       2.516   7.982   1.933  1.00  0.00    -0.018 A 
ATOM     18  C   UNL     1       1.365  10.047   3.475  1.00  0.00     0.119 A 
ATOM     19  C   UNL     1       1.641   8.810   4.054  1.00  0.00     0.047 A 
ATOM     20  C   UNL     1       1.679  10.254   2.130  1.00  0.00     0.047 A 
ATOM     21  C   UNL     1       2.211   7.785   3.287  1.00  0.00     0.012 A 
ATOM     22  C   UNL     1       2.247   9.233   1.364  1.00  0.00     0.012 A 
BRANCH  18  23
ATOM     23  O   UNL     1       0.820  11.130   4.104  1.00  0.00    -0.490 OA
BRANCH  23  24
ATOM     24  C   UNL     1       1.675  12.216   4.465  1.00  0.00     0.257 C 
BRANCH  24  25
ATOM     25  C   UNL     1       1.812  13.169   3.315  1.00  0.00     0.006 C 
ATOM     26  C   UNL     1       2.679  14.190   3.266  1.00  0.00     0.007 C 
ENDBRANCH  24  25
ENDBRANCH  23  24
ENDBRANCH  18  23
ENDBRANCH   1  17
BRANCH   8  27
ATOM     27  C   UNL     1       8.580   3.994  -3.053  1.00  0.00    -0.018 A 
ATOM     28  C   UNL     1       7.950   3.527  -4.214  1.00  0.00     0.012 A 
ATOM     29  C   UNL     1       9.789   3.401  -2.664  1.00  0.00     0.012 A 
ATOM     30  C   UNL     1       8.526   2.501  -4.968  1.00  0.00     0.047 A 
ATOM     31  C   UNL     1      10.363   2.373  -3.421  1.00  0.00     0.047 A 
ATOM     32  C   UNL     1       9.738   1.924  -4.582  1.00  0.00     0.119 A 
BRANCH  32  33
ATOM     33  O   UNL     1      10.181   0.929  -5.407  1.00  0.00    -0.490 OA
BRANCH  33  34
ATOM     34  C   UNL     1      10.001  -0.428  -5.002  1.00  0.00     0.257 C 
BRANCH  34  35
ATOM     35  C   UNL     1       8.651  -0.605  -4.373  1.00  0.00     0.006 C 
ATOM     36  C   UNL     1       8.428  -0.728  -3.058  1.00  0.00     0.007 C 
ENDBRANCH  34  35
ENDBRANCH  33  34
ENDBRANCH  32  33
ENDBRANCH   8  27
TORSDOF 8
REMARK SMILES C=CCOc1ccc(-c2ccc3ccc4c(-c5ccc(OCC=C)cc5)ccc5ccc2c3c54)cc1
REMARK SMILES IDX 9 1 10 2 11 3 12 4 13 5 14 6 15 7 16 8 27 9 28 10 29 11
REMARK SMILES IDX 30 12 31 13 32 14 33 15 34 16 8 17 5 18 6 19 36 20 7 21
REMARK SMILES IDX 35 22 4 23 3 24 2 25 1 26 17 27 18 28 26 29 19 30 25 31
REMARK SMILES IDX 20 32 21 33 22 34 23 35 24 36
REMARK H PARENT
REMARK Flexibility Score: inf
ROOT
ATOM      1  C   UNL     1       7.109   7.483  -4.840  1.00  0.00    -0.010 A 
ATOM      2  C   UNL     1       7.409   8.795  -4.440  1.00  0.00     0.010 A 
ATOM      3  C   UNL     1       6.524   9.523  -3.650  1.00  0.00     0.009 A 
ATOM      4  C   UNL     1       5.314   8.957  -3.238  1.00  0.00    -0.017 A 
ATOM      5  C   UNL     1       4.428   9.690  -2.444  1.00  0.00     0.009 A 
ATOM      6  C   UNL     1       3.219   9.132  -2.028  1.00  0.00     0.010 A 
ATOM      7  C   UNL     1       2.844   7.822  -2.388  1.00  0.00    -0.009 A 
ATOM      8  C   UNL     1       1.617   7.230  -1.977  1.00  0.00    -0.010 A 
ATOM      9  C   UNL     1       1.318   5.919  -2.376  1.00  0.00     0.010 A 
ATOM     10  C   UNL     1       2.202   5.190  -3.166  1.00  0.00     0.009 A 
ATOM     11  C   UNL     1       3.413   5.754  -3.579  1.00  0.00    -0.017 A 
ATOM     12  C   UNL     1       4.298   5.022  -4.371  1.00  0.00     0.009 A 
ATOM     13  C   UNL     1       5.508   5.580  -4.787  1.00  0.00     0.010 A 
ATOM     14  C   UNL     1       5.883   6.891  -4.430  1.00  0.00    -0.009 A 
ATOM     15  C   UNL     1       4.982   7.639  -3.622  1.00  0.00    -0.002 A 
ATOM     16  C   UNL     1       3.744   7.075  -3.194  1.00  0.00    -0.002 A 
ENDROOT
BRANCH   1  17
ATOM     17  C   UNL     1       8.092   6.774  -5.675  1.00  0.00    -0.018 A 
ATOM     18  C   UNL     1       9.981   5.412  -7.270  1.00  0.00     0.119 A 
ATOM     19  C   UNL     1      10.335   5.872  -6.003  1.00  0.00     0.047 A 
ATOM     20  C   UNL     1       8.680   5.620  -7.730  1.00  0.00     0.047 A 
ATOM     21  C   UNL     1       9.396   6.550  -5.213  1.00  0.00     0.012 A 
ATOM     22  C   UNL     1       7.743   6.296  -6.944  1.00  0.00     0.012 A 
BRANCH  18  23
ATOM     23  O   UNL     1      10.789   4.733  -8.137  1.00  0.00    -0.490 OA
BRANCH  23  24
ATOM     24  C   UNL     1      11.142   3.383  -7.834  1.00  0.00     0.257 C 
BRANCH  24  25
ATOM     25  C   UNL     1      10.237   2.436  -8.565  1.00  0.00     0.006 C 
ATOM     26  C   UNL     1       8.946   2.231  -8.271  1.00  0.00     0.007 C 
ENDBRANCH  24  25
ENDBRANCH  23  24
ENDBRANCH  18  23
ENDBRANCH   1  17
BRANCH   8  27
ATOM     27  C   UNL     1       0.633   7.940  -1.143  1.00  0.00    -0.018 A 
ATOM     28  C   UNL     1      -0.155   7.246  -0.216  1.00  0.00     0.012 A 
ATOM     29  C   UNL     1       0.455   9.325  -1.267  1.00  0.00     0.012 A 
ATOM     30  C   UNL     1      -1.088   7.926   0.570  1.00  0.00     0.047 A 
ATOM     31  C   UNL     1      -0.481  10.005  -0.478  1.00  0.00     0.047 A 
ATOM     32  C   UNL     1      -1.251   9.308   0.451  1.00  0.00     0.119 A 
BRANCH  32  33
ATOM     33  O   UNL     1      -2.201   9.842   1.276  1.00  0.00    -0.490 OA
BRANCH  33  34
ATOM     34  C   UNL     1      -1.785  10.456   2.495  1.00  0.00     0.257 C 
BRANCH  34  35
ATOM     35  C   UNL     1      -1.801  11.949   2.354  1.00  0.00     0.006 C 
ATOM     36  C   UNL     1      -1.049  12.645   1.491  1.00  0.00     0.007 C 
ENDBRANCH  34  35
ENDBRANCH  33  34
ENDBRANCH  32  33
ENDBRANCH   8  27
TORSDOF 8
ENDMDL
MODEL 4
REMARK VINA RESULT:   -15.908      3.487      7.990
REMARK INTER + INTRA:         -23.282
REMARK INTER:                 -20.681
REMARK INTRA:                  -2.601
REMARK CONF_INDEPENDENT:        4.773
REMARK UNBOUND:                -2.601
REMARK SMILES C=CCOc1ccc(-c2ccc3ccc4c(-c5ccc(OCC=C)cc5)ccc5ccc2c3c54)cc1
REMARK SMILES IDX 9 1 10 2 11 3 12 4 13 5 14 6 15 7 16 8 27 9 28 10 29 11
REMARK SMILES IDX 30 12 31 13 32 14 33 15 34 16 8 17 5 18 6 19 36 20 7 21
REMARK SMILES IDX 35 22 4 23 3 24 2 25 1 26 17 27 18 28 26 29 19 30 25 31
REMARK SMILES IDX 20 32 21 33 22 34 23 35 24 36
REMARK H PARENT
REMARK Flexibility Score: inf
ROOT
ATOM      1  C   UNL     1       5.514   6.172  -4.544  1.00  0.00    -0.010 A 
ATOM      2  C   UNL     1       6.422   7.237  -4.431  1.00  0.00     0.010 A 
ATOM      3  C   UNL     1       6.140   8.336  -3.625  1.00  0.00     0.009 A 
ATOM      4  C   UNL     1       4.941   8.399  -2.909  1.00  0.00    -0.017 A 
ATOM      5  C   UNL     1       4.661   9.503  -2.100  1.00  0.00     0.009 A 
ATOM      6  C   UNL     1       3.466   9.573  -1.382  1.00  0.00     0.010 A 
ATOM      7  C   UNL     1       2.504   8.546  -1.443  1.00  0.00    -0.009 A 
ATOM      8  C   UNL     1       1.277   8.593  -0.721  1.00  0.00    -0.010 A 
ATOM      9  C   UNL     1       0.371   7.528  -0.834  1.00  0.00     0.010 A 
ATOM     10  C   UNL     1       0.653   6.428  -1.639  1.00  0.00     0.009 A 
ATOM     11  C   UNL     1       1.851   6.364  -2.356  1.00  0.00    -0.017 A 
ATOM     12  C   UNL     1       2.132   5.261  -3.163  1.00  0.00     0.009 A 
ATOM     13  C   UNL     1       3.327   5.190  -3.881  1.00  0.00     0.010 A 
ATOM     14  C   UNL     1       4.289   6.218  -3.822  1.00  0.00    -0.009 A 
ATOM     15  C   UNL     1       4.005   7.343  -3.000  1.00  0.00    -0.002 A 
ATOM     16  C   UNL     1       2.787   7.421  -2.264  1.00  0.00    -0.002 A 
ENDROOT
BRANCH   1  17
ATOM     17  C   UNL     1       5.879   5.043  -5.415  1.00  0.00    -0.018 A 
ATOM     18  C   UNL     1       6.578   2.871  -7.078  1.00  0.00     0.119 A 
ATOM     19  C   UNL     1       6.574   2.721  -5.692  1.00  0.00     0.047 A 
ATOM     20  C   UNL     1       6.218   4.103  -7.629  1.00  0.00     0.047 A 
ATOM     21  C   UNL     1       6.229   3.800  -4.868  1.00  0.00     0.012 A 
ATOM     22  C   UNL     1       5.874   5.180  -6.808  1.00  0.00     0.012 A 
BRANCH  18  23
ATOM     23  O   UNL     1       6.885   1.907  -7.995  1.00  0.00    -0.490 OA
BRANCH  23  24
ATOM     24  C   UNL     1       6.830   0.537  -7.595  1.00  0.00     0.257 C 
BRANCH  24  25
ATOM     25  C   UNL     1       6.207  -0.293  -8.678  1.00  0.00     0.006 C 
ATOM     26  C   UNL     1       4.890  -0.458  -8.855  1.00  0.00     0.007 C 
ENDBRANCH  24  25
ENDBRANCH  23  24
ENDBRANCH  18  23
ENDBRANCH   1  17
BRANCH   8  27
ATOM     27  C   UNL     1       0.912   9.723   0.148  1.00  0.00    -0.018 A 
ATOM     28  C   UNL     1       1.661  10.016   1.296  1.00  0.00     0.012 A 
ATOM     29  C   UNL     1      -0.201  10.523  -0.146  1.00  0.00     0.012 A 
ATOM     30  C   UNL     1       1.306  11.088   2.118  1.00  0.00     0.047 A 
ATOM     31  C   UNL     1      -0.554  11.597   0.680  1.00  0.00     0.047 A 
ATOM     32  C   UNL     1       0.204  11.890   1.813  1.00  0.00     0.119 A 
BRANCH  32  33
ATOM     33  O   UNL     1      -0.032  12.898   2.705  1.00  0.00    -0.490 OA
BRANCH  33  34
ATOM     34  C   UNL     1       1.056  13.387   3.489  1.00  0.00     0.257 C 
BRANCH  34  35
ATOM     35  C   UNL     1       0.991  12.818   4.875  1.00  0.00     0.006 C 
ATOM     36  C   UNL     1       1.853  11.925   5.378  1.00  0.00     0.007 C 
ENDBRANCH  34  35
ENDBRANCH  33  34
ENDBRANCH  32  33
ENDBRANCH   8  27
TORSDOF 8
REMARK SMILES C=CCOc1ccc(-c2ccc3ccc4c(-c5ccc(OCC=C)cc5)ccc5ccc2c3c54)cc1
REMARK SMILES IDX 9 1 10 2 11 3 12 4 13 5 14 6 15 7 16 8 27 9 28 10 29 11
REMARK SMILES IDX 30 12 31 13 32 14 33 15 34 16 8 17 5 18 6 19 36 20 7 21
REMARK SMILES IDX 35 22 4 23 3 24 2 25 1 26 17 27 18 28 26 29 19 30 25 31
REMARK SMILES IDX 20 32 21 33 22 34 23 35 24 36
REMARK H PARENT
REMARK Flexibility Score: inf
ROOT
ATOM      1  C   UNL     1       2.317   6.130   1.511  1.00  0.00    -0.010 A 
ATOM      2  C   UNL     1       1.811   4.895   1.075  1.00  0.00     0.010 A 
ATOM      3  C   UNL     1       2.539   4.090   0.203  1.00  0.00     0.009 A 
ATOM      4  C   UNL     1       3.794   4.500  -0.257  1.00  0.00    -0.017 A 
ATOM      5  C   UNL     1       4.522   3.690  -1.131  1.00  0.00     0.009 A 
ATOM      6  C   UNL     1       5.775   4.092  -1.595  1.00  0.00     0.010 A 
ATOM      7  C   UNL     1       6.352   5.318  -1.206  1.00  0.00    -0.009 A 
ATOM      8  C   UNL     1       7.627   5.751  -1.665  1.00  0.00    -0.010 A 
ATOM      9  C   UNL     1       8.133   6.985  -1.228  1.00  0.00     0.010 A 
ATOM     10  C   UNL     1       7.406   7.790  -0.356  1.00  0.00     0.009 A 
ATOM     11  C   UNL     1       6.151   7.382   0.105  1.00  0.00    -0.017 A 
ATOM     12  C   UNL     1       5.423   8.190   0.980  1.00  0.00     0.009 A 
ATOM     13  C   UNL     1       4.170   7.788   1.444  1.00  0.00     0.010 A 
ATOM     14  C   UNL     1       3.593   6.564   1.053  1.00  0.00    -0.009 A 
ATOM     15  C   UNL     1       4.332   5.738   0.162  1.00  0.00    -0.002 A 
ATOM     16  C   UNL     1       5.613   6.143  -0.315  1.00  0.00    -0.002 A 
ENDROOT
BRANCH   1  17
ATOM     17  C   UNL     1       1.492   6.928   2.433  1.00  0.00    -0.018 A 
ATOM     18  C   UNL     1      -0.082   8.462   4.204  1.00  0.00     0.119 A 
ATOM     19  C   UNL     1       1.292   8.345   4.408  1.00  0.00     0.047 A 
ATOM     20  C   UNL     1      -0.663   7.823   3.106  1.00  0.00     0.047 A 
ATOM     21  C   UNL     1       2.072   7.582   3.529  1.00  0.00     0.012 A 
ATOM     22  C   UNL     1       0.114   7.061   2.229  1.00  0.00     0.012 A 
BRANCH  18  23
ATOM     23  O   UNL     1      -0.956   9.175   4.974  1.00  0.00    -0.490 OA
BRANCH  23  24
ATOM     24  C   UNL     1      -1.322  10.491   4.556  1.00  0.00     0.257 C 
BRANCH  24  25
ATOM     25  C   UNL     1      -2.674  10.469   3.907  1.00  0.00     0.006 C 
ATOM     26  C   UNL     1      -2.897  10.219   2.610  1.00  0.00     0.007 C 
ENDBRANCH  24  25
ENDBRANCH  23  24
ENDBRANCH  18  23
ENDBRANCH   1  17
BRANCH   8  27
ATOM     27  C   UNL     1       8.452   4.954  -2.587  1.00  0.00    -0.018 A 
ATOM     28  C   UNL     1       8.691   3.595  -2.344  1.00  0.00     0.012 A 
ATOM     29  C   UNL     1       9.026   5.540  -3.724  1.00  0.00     0.012 A 
ATOM     30  C   UNL     1       9.477   2.846  -3.223  1.00  0.00     0.047 A 
ATOM     31  C   UNL     1       9.812   4.786  -4.604  1.00  0.00     0.047 A 
ATOM     32  C   UNL     1      10.035   3.432  -4.361  1.00  0.00     0.119 A 
BRANCH  32  33
ATOM     33  O   UNL     1      10.784   2.586  -5.128  1.00  0.00    -0.490 OA
BRANCH  33  34
ATOM     34  C   UNL     1      10.129   1.804  -6.127  1.00  0.00     0.257 C 
BRANCH  34  35
ATOM     35  C   UNL     1      10.237   2.478  -7.463  1.00  0.00     0.006 C 
ATOM     36  C   UNL     1       9.757   3.695  -7.748  1.00  0.00     0.007 C 
ENDBRANCH  34  35
ENDBRANCH  33  34
ENDBRANCH  32  33
ENDBRANCH   8  27
TORSDOF 8
ENDMDL
MODEL 5
REMARK VINA RESULT:   -15.891      3.411      6.670
REMARK INTER + INTRA:         -22.760
REMARK INTER:                 -20.664
REMARK INTRA:                  -2.096
REMARK CONF_INDEPENDENT:        4.773
REMARK UNBOUND:                -2.096
REMARK SMILES C=CCOc1ccc(-c2ccc3ccc4c(-c5ccc(OCC=C)cc5)ccc5ccc2c3c54)cc1
REMARK SMILES IDX 9 1 10 2 11 3 12 4 13 5 14 6 15 7 16 8 27 9 28 10 29 11
REMARK SMILES IDX 30 12 31 13 32 14 33 15 34 16 8 17 5 18 6 19 36 20 7 21
REMARK SMILES IDX 35 22 4 23 3 24 2 25 1 26 17 27 18 28 26 29 19 30 25 31
REMARK SMILES IDX 20 32 21 33 22 34 23 35 24 36
REMARK H PARENT
REMARK Flexibility Score: inf
ROOT
ATOM      1  C   UNL     1       1.150   6.367   1.355  1.00  0.00    -0.010 A 
ATOM      2  C   UNL     1       0.268   5.522   0.662  1.00  0.00     0.010 A 
ATOM      3  C   UNL     1       0.733   4.656  -0.324  1.00  0.00     0.009 A 
ATOM      4  C   UNL     1       2.093   4.612  -0.643  1.00  0.00    -0.017 A 
ATOM      5  C   UNL     1       2.556   3.740  -1.632  1.00  0.00     0.009 A 
ATOM      6  C   UNL     1       3.912   3.690  -1.956  1.00  0.00     0.010 A 
ATOM      7  C   UNL     1       4.860   4.506  -1.308  1.00  0.00    -0.009 A 
ATOM      8  C   UNL     1       6.249   4.475  -1.620  1.00  0.00    -0.010 A 
ATOM      9  C   UNL     1       7.129   5.319  -0.926  1.00  0.00     0.010 A 
ATOM     10  C   UNL     1       6.666   6.185   0.060  1.00  0.00     0.009 A 
ATOM     11  C   UNL     1       5.306   6.231   0.380  1.00  0.00    -0.017 A 
ATOM     12  C   UNL     1       4.843   7.100   1.369  1.00  0.00     0.009 A 
ATOM     13  C   UNL     1       3.486   7.151   1.694  1.00  0.00     0.010 A 
ATOM     14  C   UNL     1       2.538   6.336   1.044  1.00  0.00    -0.009 A 
ATOM     15  C   UNL     1       3.007   5.449   0.036  1.00  0.00    -0.002 A 
ATOM     16  C   UNL     1       4.391   5.393  -0.300  1.00  0.00    -0.002 A 
ENDROOT
BRANCH   1  17
ATOM     17  C   UNL     1       0.588   7.257   2.384  1.00  0.00    -0.018 A 
ATOM     18  C   UNL     1      -0.497   8.962   4.355  1.00  0.00     0.119 A 
ATOM     19  C   UNL     1      -1.191   8.730   3.169  1.00  0.00     0.047 A 
ATOM     20  C   UNL     1       0.731   8.329   4.559  1.00  0.00     0.047 A 
ATOM     21  C   UNL     1      -0.651   7.885   2.190  1.00  0.00     0.012 A 
ATOM     22  C   UNL     1       1.272   7.486   3.584  1.00  0.00     0.012 A 
BRANCH  18  23
ATOM     23  O   UNL     1      -0.908   9.752   5.390  1.00  0.00    -0.490 OA
BRANCH  23  24
ATOM     24  C   UNL     1      -1.139  11.140   5.146  1.00  0.00     0.257 C 
BRANCH  24  25
ATOM     25  C   UNL     1      -2.581  11.371   4.804  1.00  0.00     0.006 C 
ATOM     26  C   UNL     1      -3.018  11.943   3.674  1.00  0.00     0.007 C 
ENDBRANCH  24  25
ENDBRANCH  23  24
ENDBRANCH  18  23
ENDBRANCH   1  17
BRANCH   8  27
ATOM     27  C   UNL     1       6.810   3.586  -2.650  1.00  0.00    -0.018 A 
ATOM     28  C   UNL     1       6.155   3.405  -3.875  1.00  0.00     0.012 A 
ATOM     29  C   UNL     1       8.006   2.891  -2.422  1.00  0.00     0.012 A 
ATOM     30  C   UNL     1       6.693   2.557  -4.846  1.00  0.00     0.047 A 
ATOM     31  C   UNL     1       8.543   2.042  -3.398  1.00  0.00     0.047 A 
ATOM     32  C   UNL     1       7.892   1.878  -4.619  1.00  0.00     0.119 A 
BRANCH  32  33
ATOM     33  O   UNL     1       8.298   1.079  -5.651  1.00  0.00    -0.490 OA
BRANCH  33  34
ATOM     34  C   UNL     1       7.308   0.502  -6.502  1.00  0.00     0.257 C 
BRANCH  34  35
ATOM     35  C   UNL     1       7.131   1.342  -7.733  1.00  0.00     0.006 C 
ATOM     36  C   UNL     1       6.346   1.025  -8.771  1.00  0.00     0.007 C 
ENDBRANCH  34  35
ENDBRANCH  33  34
ENDBRANCH  32  33
ENDBRANCH   8  27
TORSDOF 8
REMARK SMILES C=CCOc1ccc(-c2ccc3ccc4c(-c5ccc(OCC=C)cc5)ccc5ccc2c3c54)cc1
REMARK SMILES IDX 9 1 10 2 11 3 12 4 13 5 14 6 15 7 16 8 27 9 28 10 29 11
REMARK SMILES IDX 30 12 31 13 32 14 33 15 34 16 8 17 5 18 6 19 36 20 7 21
REMARK SMILES IDX 35 22 4 23 3 24 2 25 1 26 17 27 18 28 26 29 19 30 25 31
REMARK SMILES IDX 20 32 21 33 22 34 23 35 24 36
REMARK H PARENT
REMARK Flexibility Score: inf
ROOT
ATOM      1  C   UNL     1       2.064   8.608  -1.405  1.00  0.00    -0.010 A 
ATOM      2  C   UNL     1       1.203   7.776  -2.139  1.00  0.00     0.010 A 
ATOM      3  C   UNL     1       1.695   6.932  -3.130  1.00  0.00     0.009 A 
ATOM      4  C   UNL     1       3.063   6.897  -3.415  1.00  0.00    -0.017 A 
ATOM      5  C   UNL     1       3.554   6.048  -4.410  1.00  0.00     0.009 A 
ATOM      6  C   UNL     1       4.918   6.008  -4.700  1.00  0.00     0.010 A 
ATOM      7  C   UNL     1       5.847   6.811  -4.010  1.00  0.00    -0.009 A 
ATOM      8  C   UNL     1       7.243   6.789  -4.286  1.00  0.00    -0.010 A 
ATOM      9  C   UNL     1       8.104   7.619  -3.552  1.00  0.00     0.010 A 
ATOM     10  C   UNL     1       7.613   8.463  -2.560  1.00  0.00     0.009 A 
ATOM     11  C   UNL     1       6.245   8.500  -2.274  1.00  0.00    -0.017 A 
ATOM     12  C   UNL     1       5.754   9.347  -1.280  1.00  0.00     0.009 A 
ATOM     13  C   UNL     1       4.390   9.388  -0.989  1.00  0.00     0.010 A 
ATOM     14  C   UNL     1       3.460   8.585  -1.681  1.00  0.00    -0.009 A 
ATOM     15  C   UNL     1       3.958   7.722  -2.695  1.00  0.00    -0.002 A 
ATOM     16  C   UNL     1       5.350   7.675  -2.996  1.00  0.00    -0.002 A 
ENDROOT
BRANCH   1  17
ATOM     17  C   UNL     1       1.474   9.474  -0.372  1.00  0.00    -0.018 A 
ATOM     18  C   UNL     1       0.335  11.134   1.606  1.00  0.00     0.119 A 
ATOM     19  C   UNL     1      -0.335  10.915   0.404  1.00  0.00     0.047 A 
ATOM     20  C   UNL     1       1.565  10.511   1.823  1.00  0.00     0.047 A 
ATOM     21  C   UNL     1       0.233  10.092  -0.578  1.00  0.00     0.012 A 
ATOM     22  C   UNL     1       2.133   9.690   0.844  1.00  0.00     0.012 A 
BRANCH  18  23
ATOM     23  O   UNL     1      -0.104  11.902   2.647  1.00  0.00    -0.490 OA
BRANCH  23  24
ATOM     24  C   UNL     1       0.274  13.278   2.692  1.00  0.00     0.257 C 
BRANCH  24  25
ATOM     25  C   UNL     1       1.626  13.421   3.327  1.00  0.00     0.006 C 
ATOM     26  C   UNL     1       1.970  12.910   4.517  1.00  0.00     0.007 C 
ENDBRANCH  24  25
ENDBRANCH  23  24
ENDBRANCH  18  23
ENDBRANCH   1  17
BRANCH   8  27
ATOM     27  C   UNL     1       7.833   5.924  -5.320  1.00  0.00    -0.018 A 
ATOM     28  C   UNL     1       7.198   5.748  -6.557  1.00  0.00     0.012 A 
ATOM     29  C   UNL     1       9.038   5.246  -5.086  1.00  0.00     0.012 A 
ATOM     30  C   UNL     1       7.763   4.922  -7.532  1.00  0.00     0.047 A 
ATOM     31  C   UNL     1       9.601   4.419  -6.066  1.00  0.00     0.047 A 
ATOM     32  C   UNL     1       8.970   4.260  -7.297  1.00  0.00     0.119 A 
BRANCH  32  33
ATOM     33  O   UNL     1       9.403   3.483  -8.334  1.00  0.00    -0.490 OA
BRANCH  33  34
ATOM     34  C   UNL     1      10.682   2.857  -8.234  1.00  0.00     0.257 C 
BRANCH  34  35
ATOM     35  C   UNL     1      10.561   1.545  -7.518  1.00  0.00     0.006 C 
ATOM     36  C   UNL     1      11.456   1.061  -6.646  1.00  0.00     0.007 C 
ENDBRANCH  34  35
ENDBRANCH  33  34
ENDBRANCH  32  33
ENDBRANCH   8  27
TORSDOF 8
ENDMDL
MODEL 6
REMARK VINA RESULT:   -15.884      3.476      7.498
REMARK INTER + INTRA:         -23.237
REMARK INTER:                 -20.657
REMARK INTRA:                  -2.580
REMARK CONF_INDEPENDENT:        4.773
REMARK UNBOUND:                -2.580
REMARK SMILES C=CCOc1ccc(-c2ccc3ccc4c(-c5ccc(OCC=C)cc5)ccc5ccc2c3c54)cc1
REMARK SMILES IDX 9 1 10 2 11 3 12 4 13 5 14 6 15 7 16 8 27 9 28 10 29 11
REMARK SMILES IDX 30 12 31 13 32 14 33 15 34 16 8 17 5 18 6 19 36 20 7 21
REMARK SMILES IDX 35 22 4 23 3 24 2 25 1 26 17 27 18 28 26 29 19 30 25 31
REMARK SMILES IDX 20 32 21 33 22 34 23 35 24 36
REMARK H PARENT
REMARK Flexibility Score: inf
ROOT
ATOM      1  C   UNL     1       2.307   6.114   1.514  1.00  0.00    -0.010 A 
ATOM      2  C   UNL     1       1.807   4.877   1.077  1.00  0.00     0.010 A 
ATOM      3  C   UNL     1       2.537   4.078   0.202  1.00  0.00     0.009 A 
ATOM      4  C   UNL     1       3.788   4.495  -0.260  1.00  0.00    -0.017 A 
ATOM      5  C   UNL     1       4.519   3.690  -1.138  1.00  0.00     0.009 A 
ATOM      6  C   UNL     1       5.769   4.099  -1.603  1.00  0.00     0.010 A 
ATOM      7  C   UNL     1       6.340   5.326  -1.212  1.00  0.00    -0.009 A 
ATOM      8  C   UNL     1       7.613   5.767  -1.673  1.00  0.00    -0.010 A 
ATOM      9  C   UNL     1       8.114   7.002  -1.235  1.00  0.00     0.010 A 
ATOM     10  C   UNL     1       7.385   7.801  -0.359  1.00  0.00     0.009 A 
ATOM     11  C   UNL     1       6.133   7.386   0.104  1.00  0.00    -0.017 A 
ATOM     12  C   UNL     1       5.403   8.189   0.982  1.00  0.00     0.009 A 
ATOM     13  C   UNL     1       4.153   7.781   1.448  1.00  0.00     0.010 A 
ATOM     14  C   UNL     1       3.580   6.554   1.055  1.00  0.00    -0.009 A 
ATOM     15  C   UNL     1       4.322   5.734   0.161  1.00  0.00    -0.002 A 
ATOM     16  C   UNL     1       5.599   6.146  -0.318  1.00  0.00    -0.002 A 
ENDROOT
BRANCH   1  17
ATOM     17  C   UNL     1       1.481   6.905   2.440  1.00  0.00    -0.018 A 
ATOM     18  C   UNL     1      -0.097   8.428   4.218  1.00  0.00     0.119 A 
ATOM     19  C   UNL     1       1.276   8.304   4.428  1.00  0.00     0.047 A 
ATOM     20  C   UNL     1      -0.674   7.803   3.111  1.00  0.00     0.047 A 
ATOM     21  C   UNL     1       2.057   7.546   3.546  1.00  0.00     0.012 A 
ATOM     22  C   UNL     1       0.104   7.046   2.230  1.00  0.00     0.012 A 
BRANCH  18  23
ATOM     23  O   UNL     1      -0.971   9.138   4.990  1.00  0.00    -0.490 OA
BRANCH  23  24
ATOM     24  C   UNL     1      -0.853  10.560   5.031  1.00  0.00     0.257 C 
BRANCH  24  25
ATOM     25  C   UNL     1      -2.213  11.192   4.986  1.00  0.00     0.006 C 
ATOM     26  C   UNL     1      -3.082  11.068   3.974  1.00  0.00     0.007 C 
ENDBRANCH  24  25
ENDBRANCH  23  24
ENDBRANCH  18  23
ENDBRANCH   1  17
BRANCH   8  27
ATOM     27  C   UNL     1       8.439   4.975  -2.599  1.00  0.00    -0.018 A 
ATOM     28  C   UNL     1       8.558   3.588  -2.447  1.00  0.00     0.012 A 
ATOM     29  C   UNL     1       9.135   5.595  -3.647  1.00  0.00     0.012 A 
ATOM     30  C   UNL     1       9.346   2.844  -3.328  1.00  0.00     0.047 A 
ATOM     31  C   UNL     1       9.924   4.846  -4.529  1.00  0.00     0.047 A 
ATOM     32  C   UNL     1      10.026   3.465  -4.378  1.00  0.00     0.119 A 
BRANCH  32  33
ATOM     33  O   UNL     1      10.763   2.619  -5.159  1.00  0.00    -0.490 OA
BRANCH  33  34
ATOM     34  C   UNL     1      11.527   3.168  -6.232  1.00  0.00     0.257 C 
BRANCH  34  35
ATOM     35  C   UNL     1      10.740   3.111  -7.508  1.00  0.00     0.006 C 
ATOM     36  C   UNL     1       9.610   3.791  -7.743  1.00  0.00     0.007 C 
ENDBRANCH  34  35
ENDBRANCH  33  34
ENDBRANCH  32  33
ENDBRANCH   8  27
TORSDOF 8
REMARK SMILES C=CCOc1ccc(-c2ccc3ccc4c(-c5ccc(OCC=C)cc5)ccc5ccc2c3c54)cc1
REMARK SMILES IDX 9 1 10 2 11 3 12 4 13 5 14 6 15 7 16 8 27 9 28 10 29 11
REMARK SMILES IDX 30 12 31 13 32 14 33 15 34 16 8 17 5 18 6 19 36 20 7 21
REMARK SMILES IDX 35 22 4 23 3 24 2 25 1 26 17 27 18 28 26 29 19 30 25 31
REMARK SMILES IDX 20 32 21 33 22 34 23 35 24 36
REMARK H PARENT
REMARK Flexibility Score: inf
ROOT
ATOM      1  C   UNL     1       5.487   6.185  -4.560  1.00  0.00    -0.010 A 
ATOM      2  C   UNL     1       6.390   7.255  -4.452  1.00  0.00     0.010 A 
ATOM      3  C   UNL     1       6.107   8.351  -3.642  1.00  0.00     0.009 A 
ATOM      4  C   UNL     1       4.913   8.407  -2.918  1.00  0.00    -0.017 A 
ATOM      5  C   UNL     1       4.633   9.508  -2.105  1.00  0.00     0.009 A 
ATOM      6  C   UNL     1       3.443   9.571  -1.379  1.00  0.00     0.010 A 
ATOM      7  C   UNL     1       2.485   8.539  -1.435  1.00  0.00    -0.009 A 
ATOM      8  C   UNL     1       1.264   8.578  -0.705  1.00  0.00    -0.010 A 
ATOM      9  C   UNL     1       0.363   7.508  -0.812  1.00  0.00     0.010 A 
ATOM     10  C   UNL     1       0.645   6.411  -1.622  1.00  0.00     0.009 A 
ATOM     11  C   UNL     1       1.839   6.355  -2.347  1.00  0.00    -0.017 A 
ATOM     12  C   UNL     1       2.119   5.254  -3.158  1.00  0.00     0.009 A 
ATOM     13  C   UNL     1       3.310   5.191  -3.884  1.00  0.00     0.010 A 
ATOM     14  C   UNL     1       4.267   6.224  -3.830  1.00  0.00    -0.009 A 
ATOM     15  C   UNL     1       3.983   7.346  -3.004  1.00  0.00    -0.002 A 
ATOM     16  C   UNL     1       2.769   7.417  -2.260  1.00  0.00    -0.002 A 
ENDROOT
BRANCH   1  17
ATOM     17  C   UNL     1       5.852   5.059  -5.435  1.00  0.00    -0.018 A 
ATOM     18  C   UNL     1       6.554   2.905  -7.120  1.00  0.00     0.119 A 
ATOM     19  C   UNL     1       6.200   4.138  -7.667  1.00  0.00     0.047 A 
ATOM     20  C   UNL     1       6.570   2.758  -5.731  1.00  0.00     0.047 A 
ATOM     21  C   UNL     1       5.851   5.205  -6.830  1.00  0.00     0.012 A 
ATOM     22  C   UNL     1       6.221   3.822  -4.895  1.00  0.00     0.012 A 
BRANCH  18  23
ATOM     23  O   UNL     1       6.922   1.788  -7.814  1.00  0.00    -0.490 OA
BRANCH  23  24
ATOM     24  C   UNL     1       6.576   0.507  -7.287  1.00  0.00     0.257 C 
BRANCH  24  25
ATOM     25  C   UNL     1       7.812  -0.218  -6.843  1.00  0.00     0.006 C 
ATOM     26  C   UNL     1       8.743   0.287  -6.022  1.00  0.00     0.007 C 
ENDBRANCH  24  25
ENDBRANCH  23  24
ENDBRANCH  18  23
ENDBRANCH   1  17
BRANCH   8  27
ATOM     27  C   UNL     1       0.899   9.705   0.169  1.00  0.00    -0.018 A 
ATOM     28  C   UNL     1       1.652   9.998   1.314  1.00  0.00     0.012 A 
ATOM     29  C   UNL     1      -0.219  10.501  -0.117  1.00  0.00     0.012 A 
ATOM     30  C   UNL     1       1.297  11.067   2.141  1.00  0.00     0.047 A 
ATOM     31  C   UNL     1      -0.572  11.572   0.713  1.00  0.00     0.047 A 
ATOM     32  C   UNL     1       0.190  11.865   1.842  1.00  0.00     0.119 A 
BRANCH  32  33
ATOM     33  O   UNL     1      -0.044  12.870   2.738  1.00  0.00    -0.490 OA
BRANCH  33  34
ATOM     34  C   UNL     1       0.878  13.062   3.810  1.00  0.00     0.257 C 
BRANCH  34  35
ATOM     35  C   UNL     1       1.819  14.185   3.487  1.00  0.00     0.006 C 
ATOM     36  C   UNL     1       3.128  14.043   3.243  1.00  0.00     0.007 C 
ENDBRANCH  34  35
ENDBRANCH  33  34
ENDBRANCH  32  33
ENDBRANCH   8  27
TORSDOF 8
ENDMDL
MODEL 7
REMARK VINA RESULT:   -15.879      3.588      9.167
REMARK INTER + INTRA:         -23.258
REMARK INTER:                 -20.652
REMARK INTRA:                  -2.606
REMARK CONF_INDEPENDENT:        4.773
REMARK UNBOUND:                -2.606
REMARK SMILES C=CCOc1ccc(-c2ccc3ccc4c(-c5ccc(OCC=C)cc5)ccc5ccc2c3c54)cc1
REMARK SMILES IDX 9 1 10 2 11 3 12 4 13 5 14 6 15 7 16 8 27 9 28 10 29 11
REMARK SMILES IDX 30 12 31 13 32 14 33 15 34 16 8 17 5 18 6 19 36 20 7 21
REMARK SMILES IDX 35 22 4 23 3 24 2 25 1 26 17 27 18 28 26 29 19 30 25 31
REMARK SMILES IDX 20 32 21 33 22 34 23 35 24 36
REMARK H PARENT
REMARK Flexibility Score: inf
ROOT
ATOM      1  C   UNL     1       5.686   4.742  -3.760  1.00  0.00    -0.010 A 
ATOM      2  C   UNL     1       6.192   5.869  -4.426  1.00  0.00     0.010 A 
ATOM      3  C   UNL     1       5.519   7.087  -4.386  1.00  0.00     0.009 A 
ATOM      4  C   UNL     1       4.321   7.210  -3.677  1.00  0.00    -0.017 A 
ATOM      5  C   UNL     1       3.648   8.434  -3.638  1.00  0.00     0.009 A 
ATOM      6  C   UNL     1       2.452   8.565  -2.933  1.00  0.00     0.010 A 
ATOM      7  C   UNL     1       1.878   7.481  -2.239  1.00  0.00    -0.009 A 
ATOM      8  C   UNL     1       0.658   7.588  -1.512  1.00  0.00    -0.010 A 
ATOM      9  C   UNL     1       0.154   6.462  -0.845  1.00  0.00     0.010 A 
ATOM     10  C   UNL     1       0.826   5.243  -0.884  1.00  0.00     0.009 A 
ATOM     11  C   UNL     1       2.025   5.119  -1.592  1.00  0.00    -0.017 A 
ATOM     12  C   UNL     1       2.698   3.896  -1.631  1.00  0.00     0.009 A 
ATOM     13  C   UNL     1       3.895   3.765  -2.336  1.00  0.00     0.010 A 
ATOM     14  C   UNL     1       4.468   4.848  -3.032  1.00  0.00    -0.009 A 
ATOM     15  C   UNL     1       3.784   6.095  -2.995  1.00  0.00    -0.002 A 
ATOM     16  C   UNL     1       2.561   6.235  -2.276  1.00  0.00    -0.002 A 
ENDROOT
BRANCH   1  17
ATOM     17  C   UNL     1       6.451   3.487  -3.845  1.00  0.00    -0.018 A 
ATOM     18  C   UNL     1       7.920   1.083  -4.018  1.00  0.00     0.119 A 
ATOM     19  C   UNL     1       7.402   1.673  -5.169  1.00  0.00     0.047 A 
ATOM     20  C   UNL     1       7.714   1.704  -2.784  1.00  0.00     0.047 A 
ATOM     21  C   UNL     1       6.672   2.865  -5.082  1.00  0.00     0.012 A 
ATOM     22  C   UNL     1       6.986   2.894  -2.696  1.00  0.00     0.012 A 
BRANCH  18  23
ATOM     23  O   UNL     1       8.652  -0.068  -3.959  1.00  0.00    -0.490 OA
BRANCH  23  24
ATOM     24  C   UNL     1       8.740  -0.763  -2.715  1.00  0.00     0.257 C 
BRANCH  24  25
ATOM     25  C   UNL     1       9.963  -0.324  -1.964  1.00  0.00     0.006 C 
ATOM     26  C   UNL     1      10.000  -0.058  -0.651  1.00  0.00     0.007 C 
ENDBRANCH  24  25
ENDBRANCH  23  24
ENDBRANCH  18  23
ENDBRANCH   1  17
BRANCH   8  27
ATOM     27  C   UNL     1      -0.107   8.842  -1.427  1.00  0.00    -0.018 A 
ATOM     28  C   UNL     1       0.452   9.985  -0.840  1.00  0.00     0.012 A 
ATOM     29  C   UNL     1      -1.417   8.917  -1.921  1.00  0.00     0.012 A 
ATOM     30  C   UNL     1      -0.282  11.171  -0.760  1.00  0.00     0.047 A 
ATOM     31  C   UNL     1      -2.150  10.108  -1.840  1.00  0.00     0.047 A 
ATOM     32  C   UNL     1      -1.582  11.243  -1.266  1.00  0.00     0.119 A 
BRANCH  32  33
ATOM     33  O   UNL     1      -2.184  12.461  -1.116  1.00  0.00    -0.490 OA
BRANCH  33  34
ATOM     34  C   UNL     1      -1.484  13.629  -1.543  1.00  0.00     0.257 C 
BRANCH  34  35
ATOM     35  C   UNL     1      -2.121  14.190  -2.780  1.00  0.00     0.006 C 
ATOM     36  C   UNL     1      -3.006  13.541  -3.548  1.00  0.00     0.007 C 
ENDBRANCH  34  35
ENDBRANCH  33  34
ENDBRANCH  32  33
ENDBRANCH   8  27
TORSDOF 8
REMARK SMILES C=CCOc1ccc(-c2ccc3ccc4c(-c5ccc(OCC=C)cc5)ccc5ccc2c3c54)cc1
REMARK SMILES IDX 9 1 10 2 11 3 12 4 13 5 14 6 15 7 16 8 27 9 28 10 29 11
REMARK SMILES IDX 30 12 31 13 32 14 33 15 34 16 8 17 5 18 6 19 36 20 7 21
REMARK SMILES IDX 35 22 4 23 3 24 2 25 1 26 17 27 18 28 26 29 19 30 25 31
REMARK SMILES IDX 20 32 21 33 22 34 23 35 24 36
REMARK H PARENT
REMARK Flexibility Score: inf
ROOT
ATOM      1  C   UNL     1       7.469   6.949  -1.529  1.00  0.00    -0.010 A 
ATOM      2  C   UNL     1       7.506   8.275  -1.990  1.00  0.00     0.010 A 
ATOM      3  C   UNL     1       6.503   9.178  -1.652  1.00  0.00     0.009 A 
ATOM      4  C   UNL     1       5.434   8.780  -0.843  1.00  0.00    -0.017 A 
ATOM      5  C   UNL     1       4.430   9.690  -0.506  1.00  0.00     0.009 A 
ATOM      6  C   UNL     1       3.360   9.300   0.301  1.00  0.00     0.010 A 
ATOM      7  C   UNL     1       3.250   7.988   0.803  1.00  0.00    -0.009 A 
ATOM      8  C   UNL     1       2.169   7.565   1.627  1.00  0.00    -0.010 A 
ATOM      9  C   UNL     1       2.133   6.241   2.089  1.00  0.00     0.010 A 
ATOM     10  C   UNL     1       3.136   5.336   1.752  1.00  0.00     0.009 A 
ATOM     11  C   UNL     1       4.205   5.733   0.943  1.00  0.00    -0.017 A 
ATOM     12  C   UNL     1       5.210   4.825   0.606  1.00  0.00     0.009 A 
ATOM     13  C   UNL     1       6.280   5.214  -0.201  1.00  0.00     0.010 A 
ATOM     14  C   UNL     1       6.390   6.526  -0.704  1.00  0.00    -0.009 A 
ATOM     15  C   UNL     1       5.367   7.453  -0.363  1.00  0.00    -0.002 A 
ATOM     16  C   UNL     1       4.272   7.061   0.462  1.00  0.00    -0.002 A 
ENDROOT
BRANCH   1  17
ATOM     17  C   UNL     1       8.564   6.049  -1.925  1.00  0.00    -0.018 A 
ATOM     18  C   UNL     1      10.666   4.328  -2.693  1.00  0.00     0.119 A 
ATOM     19  C   UNL     1      10.120   5.222  -3.612  1.00  0.00     0.047 A 
ATOM     20  C   UNL     1      10.169   4.307  -1.388  1.00  0.00     0.047 A 
ATOM     21  C   UNL     1       9.076   6.074  -3.231  1.00  0.00     0.012 A 
ATOM     22  C   UNL     1       9.127   5.156  -1.006  1.00  0.00     0.012 A 
BRANCH  18  23
ATOM     23  O   UNL     1      11.686   3.450  -2.926  1.00  0.00    -0.490 OA
BRANCH  23  24
ATOM     24  C   UNL     1      11.383   2.189  -3.524  1.00  0.00     0.257 C 
BRANCH  24  25
ATOM     25  C   UNL     1      10.767   2.393  -4.876  1.00  0.00     0.006 C 
ATOM     26  C   UNL     1      11.145   1.759  -5.994  1.00  0.00     0.007 C 
ENDBRANCH  24  25
ENDBRANCH  23  24
ENDBRANCH  18  23
ENDBRANCH   1  17
BRANCH   8  27
ATOM     27  C   UNL     1       1.074   8.465   2.023  1.00  0.00    -0.018 A 
ATOM     28  C   UNL     1      -0.258   8.145   1.730  1.00  0.00     0.012 A 
ATOM     29  C   UNL     1       1.341   9.669   2.690  1.00  0.00     0.012 A 
ATOM     30  C   UNL     1      -1.292   9.006   2.106  1.00  0.00     0.047 A 
ATOM     31  C   UNL     1       0.302  10.529   3.066  1.00  0.00     0.047 A 
ATOM     32  C   UNL     1      -1.021  10.197   2.783  1.00  0.00     0.119 A 
BRANCH  32  33
ATOM     33  O   UNL     1      -2.124  10.945   3.084  1.00  0.00    -0.490 OA
BRANCH  33  34
ATOM     34  C   UNL     1      -2.004  12.367   3.109  1.00  0.00     0.257 C 
BRANCH  34  35
ATOM     35  C   UNL     1      -1.446  12.861   1.807  1.00  0.00     0.006 C 
ATOM     36  C   UNL     1      -0.410  13.702   1.686  1.00  0.00     0.007 C 
ENDBRANCH  34  35
ENDBRANCH  33  34
ENDBRANCH  32  33
ENDBRANCH   8  27
TORSDOF 8
ENDMDL
MODEL 8
REMARK VINA RESULT:   -15.570      1.522      2.129
REMARK INTER + INTRA:         -22.866
REMARK INTER:                 -20.343
REMARK INTRA:                  -2.524
REMARK CONF_INDEPENDENT:        4.773
REMARK UNBOUND:                -2.524
REMARK SMILES C=CCOc1ccc(-c2ccc3ccc4c(-c5ccc(OCC=C)cc5)ccc5ccc2c3c54)cc1
REMARK SMILES IDX 9 1 10 2 11 3 12 4 13 5 14 6 15 7 16 8 27 9 28 10 29 11
REMARK SMILES IDX 30 12 31 13 32 14 33 15 34 16 8 17 5 18 6 19 36 20 7 21
REMARK SMILES IDX 35 22 4 23 3 24 2 25 1 26 17 27 18 28 26 29 19 30 25 31
REMARK SMILES IDX 20 32 21 33 22 34 23 35 24 36
REMARK H PARENT
REMARK Flexibility Score: inf
ROOT
ATOM      1  C   UNL     1       1.760   6.306  -2.158  1.00  0.00    -0.010 A 
ATOM      2  C   UNL     1       1.590   7.430  -2.983  1.00  0.00     0.010 A 
ATOM      3  C   UNL     1       2.581   7.815  -3.881  1.00  0.00     0.009 A 
ATOM      4  C   UNL     1       3.770   7.087  -3.978  1.00  0.00    -0.017 A 
ATOM      5  C   UNL     1       4.763   7.476  -4.881  1.00  0.00     0.009 A 
ATOM      6  C   UNL     1       5.952   6.754  -4.984  1.00  0.00     0.010 A 
ATOM      7  C   UNL     1       6.199   5.616  -4.192  1.00  0.00    -0.009 A 
ATOM      8  C   UNL     1       7.404   4.862  -4.277  1.00  0.00    -0.010 A 
ATOM      9  C   UNL     1       7.573   3.738  -3.454  1.00  0.00     0.010 A 
ATOM     10  C   UNL     1       6.582   3.352  -2.556  1.00  0.00     0.009 A 
ATOM     11  C   UNL     1       5.392   4.079  -2.458  1.00  0.00    -0.017 A 
ATOM     12  C   UNL     1       4.400   3.690  -1.556  1.00  0.00     0.009 A 
ATOM     13  C   UNL     1       3.210   4.412  -1.453  1.00  0.00     0.010 A 
ATOM     14  C   UNL     1       2.963   5.552  -2.244  1.00  0.00    -0.009 A 
ATOM     15  C   UNL     1       3.973   5.950  -3.163  1.00  0.00    -0.002 A 
ATOM     16  C   UNL     1       5.190   5.217  -3.274  1.00  0.00    -0.002 A 
ENDROOT
BRANCH   1  17
ATOM     17  C   UNL     1       0.670   5.957  -1.233  1.00  0.00    -0.018 A 
ATOM     18  C   UNL     1      -1.424   5.296   0.541  1.00  0.00     0.119 A 
ATOM     19  C   UNL     1      -1.076   6.629   0.332  1.00  0.00     0.047 A 
ATOM     20  C   UNL     1      -0.734   4.297  -0.150  1.00  0.00     0.047 A 
ATOM     21  C   UNL     1      -0.035   6.956  -0.547  1.00  0.00     0.012 A 
ATOM     22  C   UNL     1       0.305   4.622  -1.027  1.00  0.00     0.012 A 
BRANCH  18  23
ATOM     23  O   UNL     1      -2.417   4.838   1.359  1.00  0.00    -0.490 OA
BRANCH  23  24
ATOM     24  C   UNL     1      -2.142   4.683   2.752  1.00  0.00     0.257 C 
BRANCH  24  25
ATOM     25  C   UNL     1      -2.294   5.999   3.457  1.00  0.00     0.006 C 
ATOM     26  C   UNL     1      -2.545   6.142   4.765  1.00  0.00     0.007 C 
ENDBRANCH  24  25
ENDBRANCH  23  24
ENDBRANCH  18  23
ENDBRANCH   1  17
BRANCH   8  27
ATOM     27  C   UNL     1       8.494   5.212  -5.202  1.00  0.00    -0.018 A 
ATOM     28  C   UNL     1       9.781   5.489  -4.721  1.00  0.00     0.012 A 
ATOM     29  C   UNL     1       8.266   5.287  -6.583  1.00  0.00     0.012 A 
ATOM     30  C   UNL     1      10.810   5.824  -5.605  1.00  0.00     0.047 A 
ATOM     31  C   UNL     1       9.300   5.622  -7.466  1.00  0.00     0.047 A 
ATOM     32  C   UNL     1      10.580   5.884  -6.981  1.00  0.00     0.119 A 
BRANCH  32  33
ATOM     33  O   UNL     1      11.672   6.228  -7.726  1.00  0.00    -0.490 OA
BRANCH  33  34
ATOM     34  C   UNL     1      11.469   6.817  -9.010  1.00  0.00     0.257 C 
BRANCH  34  35
ATOM     35  C   UNL     1      11.021   8.241  -8.860  1.00  0.00     0.006 C 
ATOM     36  C   UNL     1       9.746   8.651  -8.885  1.00  0.00     0.007 C 
ENDBRANCH  34  35
ENDBRANCH  33  34
ENDBRANCH  32  33
ENDBRANCH   8  27
TORSDOF 8
REMARK SMILES C=CCOc1ccc(-c2ccc3ccc4c(-c5ccc(OCC=C)cc5)ccc5ccc2c3c54)cc1
REMARK SMILES IDX 9 1 10 2 11 3 12 4 13 5 14 6 15 7 16 8 27 9 28 10 29 11
REMARK SMILES IDX 30 12 31 13 32 14 33 15 34 16 8 17 5 18 6 19 36 20 7 21
REMARK SMILES IDX 35 22 4 23 3 24 2 25 1 26 17 27 18 28 26 29 19 30 25 31
REMARK SMILES IDX 20 32 21 33 22 34 23 35 24 36
REMARK H PARENT
REMARK Flexibility Score: inf
ROOT
ATOM      1  C   UNL     1       3.118   7.447   0.919  1.00  0.00    -0.010 A 
ATOM      2  C   UNL     1       2.502   8.573   0.349  1.00  0.00     0.010 A 
ATOM      3  C   UNL     1       3.140   9.312  -0.643  1.00  0.00     0.009 A 
ATOM      4  C   UNL     1       4.412   8.945  -1.091  1.00  0.00    -0.017 A 
ATOM      5  C   UNL     1       5.050   9.690  -2.087  1.00  0.00     0.009 A 
ATOM      6  C   UNL     1       6.319   9.330  -2.540  1.00  0.00     0.010 A 
ATOM      7  C   UNL     1       7.003   8.214  -2.019  1.00  0.00    -0.009 A 
ATOM      8  C   UNL     1       8.299   7.826  -2.464  1.00  0.00    -0.010 A 
ATOM      9  C   UNL     1       8.913   6.700  -1.895  1.00  0.00     0.010 A 
ATOM     10  C   UNL     1       8.275   5.959  -0.904  1.00  0.00     0.009 A 
ATOM     11  C   UNL     1       7.003   6.324  -0.454  1.00  0.00    -0.017 A 
ATOM     12  C   UNL     1       6.366   5.581   0.540  1.00  0.00     0.009 A 
ATOM     13  C   UNL     1       5.096   5.940   0.994  1.00  0.00     0.010 A 
ATOM     14  C   UNL     1       4.412   7.057   0.474  1.00  0.00    -0.009 A 
ATOM     15  C   UNL     1       5.060   7.817  -0.539  1.00  0.00    -0.002 A 
ATOM     16  C   UNL     1       6.356   7.455  -1.007  1.00  0.00    -0.002 A 
ENDROOT
BRANCH   1  17
ATOM     17  C   UNL     1       2.384   6.712   1.962  1.00  0.00    -0.018 A 
ATOM     18  C   UNL     1       0.974   5.311   3.966  1.00  0.00     0.119 A 
ATOM     19  C   UNL     1       1.336   6.642   4.164  1.00  0.00     0.047 A 
ATOM     20  C   UNL     1       1.304   4.688   2.761  1.00  0.00     0.047 A 
ATOM     21  C   UNL     1       2.038   7.336   3.169  1.00  0.00     0.012 A 
ATOM     22  C   UNL     1       2.004   5.379   1.767  1.00  0.00     0.012 A 
BRANCH  18  23
ATOM     23  O   UNL     1       0.286   4.522   4.843  1.00  0.00    -0.490 OA
BRANCH  23  24
ATOM     24  C   UNL     1       0.757   3.196   5.090  1.00  0.00     0.257 C 
BRANCH  24  25
ATOM     25  C   UNL     1      -0.180   2.194   4.482  1.00  0.00     0.006 C 
ATOM     26  C   UNL     1      -0.103   1.738   3.225  1.00  0.00     0.007 C 
ENDBRANCH  24  25
ENDBRANCH  23  24
ENDBRANCH  18  23
ENDBRANCH   1  17
BRANCH   8  27
ATOM     27  C   UNL     1       9.033   8.561  -3.506  1.00  0.00    -0.018 A 
ATOM     28  C   UNL     1       8.427   8.862  -4.733  1.00  0.00     0.012 A 
ATOM     29  C   UNL     1      10.360   8.965  -3.299  1.00  0.00     0.012 A 
ATOM     30  C   UNL     1       9.132   9.557  -5.719  1.00  0.00     0.047 A 
ATOM     31  C   UNL     1      11.063   9.662  -4.289  1.00  0.00     0.047 A 
ATOM     32  C   UNL     1      10.448   9.969  -5.501  1.00  0.00     0.119 A 
BRANCH  32  33
ATOM     33  O   UNL     1      11.017  10.633  -6.551  1.00  0.00    -0.490 OA
BRANCH  33  34
ATOM     34  C   UNL     1      10.585  11.963  -6.836  1.00  0.00     0.257 C 
BRANCH  34  35
ATOM     35  C   UNL     1       9.328  11.933  -7.655  1.00  0.00     0.006 C 
ATOM     36  C   UNL     1       8.706  13.014  -8.144  1.00  0.00     0.007 C 
ENDBRANCH  34  35
ENDBRANCH  33  34
ENDBRANCH  32  33
ENDBRANCH   8  27
TORSDOF 8
ENDMDL
MODEL 9
REMARK VINA RESULT:   -15.569      1.508      4.397
REMARK INTER + INTRA:         -23.060
REMARK INTER:                 -20.342
REMARK INTRA:                  -2.719
REMARK CONF_INDEPENDENT:        4.773
REMARK UNBOUND:                -2.719
REMARK SMILES C=CCOc1ccc(-c2ccc3ccc4c(-c5ccc(OCC=C)cc5)ccc5ccc2c3c54)cc1
REMARK SMILES IDX 9 1 10 2 11 3 12 4 13 5 14 6 15 7 16 8 27 9 28 10 29 11
REMARK SMILES IDX 30 12 31 13 32 14 33 15 34 16 8 17 5 18 6 19 36 20 7 21
REMARK SMILES IDX 35 22 4 23 3 24 2 25 1 26 17 27 18 28 26 29 19 30 25 31
REMARK SMILES IDX 20 32 21 33 22 34 23 35 24 36
REMARK H PARENT
REMARK Flexibility Score: inf
ROOT
ATOM      1  C   UNL     1       3.105   7.422   0.959  1.00  0.00    -0.010 A 
ATOM      2  C   UNL     1       2.497   8.562   0.411  1.00  0.00     0.010 A 
ATOM      3  C   UNL     1       3.135   9.310  -0.574  1.00  0.00     0.009 A 
ATOM      4  C   UNL     1       4.400   8.937  -1.038  1.00  0.00    -0.017 A 
ATOM      5  C   UNL     1       5.037   9.690  -2.028  1.00  0.00     0.009 A 
ATOM      6  C   UNL     1       6.299   9.324  -2.495  1.00  0.00     0.010 A 
ATOM      7  C   UNL     1       6.977   8.194  -1.995  1.00  0.00    -0.009 A 
ATOM      8  C   UNL     1       8.265   7.800  -2.455  1.00  0.00    -0.010 A 
ATOM      9  C   UNL     1       8.872   6.659  -1.908  1.00  0.00     0.010 A 
ATOM     10  C   UNL     1       8.234   5.910  -0.923  1.00  0.00     0.009 A 
ATOM     11  C   UNL     1       6.969   6.282  -0.458  1.00  0.00    -0.017 A 
ATOM     12  C   UNL     1       6.331   5.530   0.529  1.00  0.00     0.009 A 
ATOM     13  C   UNL     1       5.068   5.895   0.998  1.00  0.00     0.010 A 
ATOM     14  C   UNL     1       4.392   7.026   0.499  1.00  0.00    -0.009 A 
ATOM     15  C   UNL     1       5.040   7.795  -0.507  1.00  0.00    -0.002 A 
ATOM     16  C   UNL     1       6.329   7.426  -0.990  1.00  0.00    -0.002 A 
ENDROOT
BRANCH   1  17
ATOM     17  C   UNL     1       2.371   6.679   1.997  1.00  0.00    -0.018 A 
ATOM     18  C   UNL     1       0.962   5.263   3.991  1.00  0.00     0.119 A 
ATOM     19  C   UNL     1       1.312   6.596   4.193  1.00  0.00     0.047 A 
ATOM     20  C   UNL     1       1.304   4.645   2.787  1.00  0.00     0.047 A 
ATOM     21  C   UNL     1       2.013   7.298   3.203  1.00  0.00     0.012 A 
ATOM     22  C   UNL     1       2.004   5.343   1.798  1.00  0.00     0.012 A 
BRANCH  18  23
ATOM     23  O   UNL     1       0.276   4.466   4.863  1.00  0.00    -0.490 OA
BRANCH  23  24
ATOM     24  C   UNL     1       0.384   3.049   4.729  1.00  0.00     0.257 C 
BRANCH  24  25
ATOM     25  C   UNL     1      -0.816   2.506   4.010  1.00  0.00     0.006 C 
ATOM     26  C   UNL     1      -0.834   2.133   2.723  1.00  0.00     0.007 C 
ENDBRANCH  24  25
ENDBRANCH  23  24
ENDBRANCH  18  23
ENDBRANCH   1  17
BRANCH   8  27
ATOM     27  C   UNL     1       8.998   8.543  -3.493  1.00  0.00    -0.018 A 
ATOM     28  C   UNL     1       8.442   8.740  -4.763  1.00  0.00     0.012 A 
ATOM     29  C   UNL     1      10.276   9.059  -3.235  1.00  0.00     0.012 A 
ATOM     30  C   UNL     1       9.146   9.443  -5.743  1.00  0.00     0.047 A 
ATOM     31  C   UNL     1      10.979   9.765  -4.220  1.00  0.00     0.047 A 
ATOM     32  C   UNL     1      10.413   9.967  -5.477  1.00  0.00     0.119 A 
BRANCH  32  33
ATOM     33  O   UNL     1      10.988  10.626  -6.526  1.00  0.00    -0.490 OA
BRANCH  33  34
ATOM     34  C   UNL     1      11.028  12.053  -6.501  1.00  0.00     0.257 C 
BRANCH  34  35
ATOM     35  C   UNL     1       9.739  12.615  -7.024  1.00  0.00     0.006 C 
ATOM     36  C   UNL     1       8.597  12.690  -6.327  1.00  0.00     0.007 C 
ENDBRANCH  34  35
ENDBRANCH  33  34
ENDBRANCH  32  33
ENDBRANCH   8  27
TORSDOF 8
REMARK SMILES C=CCOc1ccc(-c2ccc3ccc4c(-c5ccc(OCC=C)cc5)ccc5ccc2c3c54)cc1
REMARK SMILES IDX 9 1 10 2 11 3 12 4 13 5 14 6 15 7 16 8 27 9 28 10 29 11
REMARK SMILES IDX 30 12 31 13 32 14 33 15 34 16 8 17 5 18 6 19 36 20 7 21
REMARK SMILES IDX 35 22 4 23 3 24 2 25 1 26 17 27 18 28 26 29 19 30 25 31
REMARK SMILES IDX 20 32 21 33 22 34 23 35 24 36
REMARK H PARENT
REMARK Flexibility Score: inf
ROOT
ATOM      1  C   UNL     1       1.752   6.324  -2.138  1.00  0.00    -0.010 A 
ATOM      2  C   UNL     1       1.582   7.444  -2.968  1.00  0.00     0.010 A 
ATOM      3  C   UNL     1       2.565   7.815  -3.880  1.00  0.00     0.009 A 
ATOM      4  C   UNL     1       3.746   7.076  -3.988  1.00  0.00    -0.017 A 
ATOM      5  C   UNL     1       4.731   7.451  -4.905  1.00  0.00     0.009 A 
ATOM      6  C   UNL     1       5.912   6.718  -5.018  1.00  0.00     0.010 A 
ATOM      7  C   UNL     1       6.160   5.583  -4.221  1.00  0.00    -0.009 A 
ATOM      8  C   UNL     1       7.357   4.818  -4.316  1.00  0.00    -0.010 A 
ATOM      9  C   UNL     1       7.526   3.699  -3.487  1.00  0.00     0.010 A 
ATOM     10  C   UNL     1       6.544   3.326  -2.575  1.00  0.00     0.009 A 
ATOM     11  C   UNL     1       5.361   4.065  -2.467  1.00  0.00    -0.017 A 
ATOM     12  C   UNL     1       4.377   3.690  -1.551  1.00  0.00     0.009 A 
ATOM     13  C   UNL     1       3.195   4.423  -1.437  1.00  0.00     0.010 A 
ATOM     14  C   UNL     1       2.948   5.559  -2.233  1.00  0.00    -0.009 A 
ATOM     15  C   UNL     1       3.949   5.943  -3.167  1.00  0.00    -0.002 A 
ATOM     16  C   UNL     1       5.159   5.199  -3.288  1.00  0.00    -0.002 A 
ENDROOT
BRANCH   1  17
ATOM     17  C   UNL     1       0.670   5.991  -1.197  1.00  0.00    -0.018 A 
ATOM     18  C   UNL     1      -1.401   5.343   0.608  1.00  0.00     0.119 A 
ATOM     19  C   UNL     1      -0.722   4.334  -0.072  1.00  0.00     0.047 A 
ATOM     20  C   UNL     1      -1.032   6.673   0.395  1.00  0.00     0.047 A 
ATOM     21  C   UNL     1       0.305   4.657  -0.969  1.00  0.00     0.012 A 
ATOM     22  C   UNL     1      -0.009   6.997  -0.500  1.00  0.00     0.012 A 
BRANCH  18  23
ATOM     23  O   UNL     1      -2.411   5.171   1.511  1.00  0.00    -0.490 OA
BRANCH  23  24
ATOM     24  C   UNL     1      -2.159   5.461   2.886  1.00  0.00     0.257 C 
BRANCH  24  25
ATOM     25  C   UNL     1      -2.585   6.864   3.204  1.00  0.00     0.006 C 
ATOM     26  C   UNL     1      -1.810   7.786   3.791  1.00  0.00     0.007 C 
ENDBRANCH  24  25
ENDBRANCH  23  24
ENDBRANCH  18  23
ENDBRANCH   1  17
BRANCH   8  27
ATOM     27  C   UNL     1       8.439   5.153  -5.256  1.00  0.00    -0.018 A 
ATOM     28  C   UNL     1       8.235   5.076  -6.640  1.00  0.00     0.012 A 
ATOM     29  C   UNL     1       9.701   5.543  -4.787  1.00  0.00     0.012 A 
ATOM     30  C   UNL     1       9.268   5.391  -7.527  1.00  0.00     0.047 A 
ATOM     31  C   UNL     1      10.734   5.860  -5.678  1.00  0.00     0.047 A 
ATOM     32  C   UNL     1      10.519   5.793  -7.053  1.00  0.00     0.119 A 
BRANCH  32  33
ATOM     33  O   UNL     1      11.436   6.065  -8.029  1.00  0.00    -0.490 OA
BRANCH  33  34
ATOM     34  C   UNL     1      11.073   6.959  -9.081  1.00  0.00     0.257 C 
BRANCH  34  35
ATOM     35  C   UNL     1      10.540   8.240  -8.511  1.00  0.00     0.006 C 
ATOM     36  C   UNL     1       9.569   8.979  -9.063  1.00  0.00     0.007 C 
ENDBRANCH  34  35
ENDBRANCH  33  34
ENDBRANCH  32  33
ENDBRANCH   8  27
TORSDOF 8
ENDMDL
MODEL 10
REMARK VINA RESULT:   -15.523      1.498     11.209
REMARK INTER + INTRA:         -23.028
REMARK INTER:                 -20.296
REMARK INTRA:                  -2.732
REMARK CONF_INDEPENDENT:        4.773
REMARK UNBOUND:                -2.732
REMARK SMILES C=CCOc1ccc(-c2ccc3ccc4c(-c5ccc(OCC=C)cc5)ccc5ccc2c3c54)cc1
REMARK SMILES IDX 9 1 10 2 11 3 12 4 13 5 14 6 15 7 16 8 27 9 28 10 29 11
REMARK SMILES IDX 30 12 31 13 32 14 33 15 34 16 8 17 5 18 6 19 36 20 7 21
REMARK SMILES IDX 35 22 4 23 3 24 2 25 1 26 17 27 18 28 26 29 19 30 25 31
REMARK SMILES IDX 20 32 21 33 22 34 23 35 24 36
REMARK H PARENT
REMARK Flexibility Score: inf
ROOT
ATOM      1  C   UNL     1       7.499   4.884  -4.208  1.00  0.00    -0.010 A 
ATOM      2  C   UNL     1       7.659   3.758  -3.385  1.00  0.00     0.010 A 
ATOM      3  C   UNL     1       6.655   3.364  -2.506  1.00  0.00     0.009 A 
ATOM      4  C   UNL     1       5.461   4.088  -2.425  1.00  0.00    -0.017 A 
ATOM      5  C   UNL     1       4.455   3.690  -1.542  1.00  0.00     0.009 A 
ATOM      6  C   UNL     1       3.261   4.407  -1.456  1.00  0.00     0.010 A 
ATOM      7  C   UNL     1       3.024   5.549  -2.246  1.00  0.00    -0.009 A 
ATOM      8  C   UNL     1       1.815   6.298  -2.177  1.00  0.00    -0.010 A 
ATOM      9  C   UNL     1       1.654   7.423  -3.000  1.00  0.00     0.010 A 
ATOM     10  C   UNL     1       2.658   7.816  -3.881  1.00  0.00     0.009 A 
ATOM     11  C   UNL     1       3.852   7.094  -3.963  1.00  0.00    -0.017 A 
ATOM     12  C   UNL     1       4.857   7.490  -4.846  1.00  0.00     0.009 A 
ATOM     13  C   UNL     1       6.052   6.773  -4.932  1.00  0.00     0.010 A 
ATOM     14  C   UNL     1       6.291   5.632  -4.140  1.00  0.00    -0.009 A 
ATOM     15  C   UNL     1       5.268   5.227  -3.239  1.00  0.00    -0.002 A 
ATOM     16  C   UNL     1       4.046   5.955  -3.147  1.00  0.00    -0.002 A 
ENDROOT
BRANCH   1  17
ATOM     17  C   UNL     1       8.602   5.241  -5.114  1.00  0.00    -0.018 A 
ATOM     18  C   UNL     1      10.725   5.922  -6.846  1.00  0.00     0.119 A 
ATOM     19  C   UNL     1      10.933   5.868  -5.469  1.00  0.00     0.047 A 
ATOM     20  C   UNL     1       9.460   5.621  -7.355  1.00  0.00     0.047 A 
ATOM     21  C   UNL     1       9.878   5.531  -4.610  1.00  0.00     0.012 A 
ATOM     22  C   UNL     1       8.407   5.285  -6.499  1.00  0.00     0.012 A 
BRANCH  18  23
ATOM     23  O   UNL     1      11.661   6.228  -7.793  1.00  0.00    -0.490 OA
BRANCH  23  24
ATOM     24  C   UNL     1      11.252   6.952  -8.953  1.00  0.00     0.257 C 
BRANCH  24  25
ATOM     25  C   UNL     1      11.315   8.428  -8.690  1.00  0.00     0.006 C 
ATOM     26  C   UNL     1      10.296   9.280  -8.861  1.00  0.00     0.007 C 
ENDBRANCH  24  25
ENDBRANCH  23  24
ENDBRANCH  18  23
ENDBRANCH   1  17
BRANCH   8  27
ATOM     27  C   UNL     1       0.712   5.942  -1.271  1.00  0.00    -0.018 A 
ATOM     28  C   UNL     1       0.025   6.930  -0.554  1.00  0.00     0.012 A 
ATOM     29  C   UNL     1       0.332   4.604  -1.095  1.00  0.00     0.012 A 
ATOM     30  C   UNL     1      -1.019   6.584   0.308  1.00  0.00     0.047 A 
ATOM     31  C   UNL     1      -0.715   4.260  -0.231  1.00  0.00     0.047 A 
ATOM     32  C   UNL     1      -1.401   5.251   0.468  1.00  0.00     0.119 A 
BRANCH  32  33
ATOM     33  O   UNL     1      -2.432   5.056   1.344  1.00  0.00    -0.490 OA
BRANCH  33  34
ATOM     34  C   UNL     1      -2.929   6.175   2.078  1.00  0.00     0.257 C 
BRANCH  34  35
ATOM     35  C   UNL     1      -2.528   6.067   3.520  1.00  0.00     0.006 C 
ATOM     36  C   UNL     1      -2.244   7.107   4.316  1.00  0.00     0.007 C 
ENDBRANCH  34  35
ENDBRANCH  33  34
ENDBRANCH  32  33
ENDBRANCH   8  27
TORSDOF 8
REMARK SMILES C=CCOc1ccc(-c2ccc3ccc4c(-c5ccc(OCC=C)cc5)ccc5ccc2c3c54)cc1
REMARK SMILES IDX 9 1 10 2 11 3 12 4 13 5 14 6 15 7 16 8 27 9 28 10 29 11
REMARK SMILES IDX 30 12 31 13 32 14 33 15 34 16 8 17 5 18 6 19 36 20 7 21
REMARK SMILES IDX 35 22 4 23 3 24 2 25 1 26 17 27 18 28 26 29 19 30 25 31
REMARK SMILES IDX 20 32 21 33 22 34 23 35 24 36
REMARK H PARENT
REMARK Flexibility Score: inf
ROOT
ATOM      1  C   UNL     1       8.449   7.805  -2.326  1.00  0.00    -0.010 A 
ATOM      2  C   UNL     1       9.035   6.669  -1.746  1.00  0.00     0.010 A 
ATOM      3  C   UNL     1       8.356   5.924  -0.786  1.00  0.00     0.009 A 
ATOM      4  C   UNL     1       7.071   6.296  -0.380  1.00  0.00    -0.017 A 
ATOM      5  C   UNL     1       6.392   5.546   0.583  1.00  0.00     0.009 A 
ATOM      6  C   UNL     1       5.110   5.911   0.993  1.00  0.00     0.010 A 
ATOM      7  C   UNL     1       4.454   7.038   0.460  1.00  0.00    -0.009 A 
ATOM      8  C   UNL     1       3.146   7.433   0.862  1.00  0.00    -0.010 A 
ATOM      9  C   UNL     1       2.560   8.568   0.282  1.00  0.00     0.010 A 
ATOM     10  C   UNL     1       3.239   9.313  -0.679  1.00  0.00     0.009 A 
ATOM     11  C   UNL     1       4.523   8.942  -1.086  1.00  0.00    -0.017 A 
ATOM     12  C   UNL     1       5.202   9.691  -2.049  1.00  0.00     0.009 A 
ATOM     13  C   UNL     1       6.485   9.326  -2.460  1.00  0.00     0.010 A 
ATOM     14  C   UNL     1       7.142   8.199  -1.926  1.00  0.00    -0.009 A 
ATOM     15  C   UNL     1       6.453   7.435  -0.944  1.00  0.00    -0.002 A 
ATOM     16  C   UNL     1       5.142   7.802  -0.520  1.00  0.00    -0.002 A 
ENDROOT
BRANCH   1  17
ATOM     17  C   UNL     1       9.226   8.544  -3.335  1.00  0.00    -0.018 A 
ATOM     18  C   UNL     1      10.722   9.961  -5.264  1.00  0.00     0.119 A 
ATOM     19  C   UNL     1      11.192   9.847  -3.957  1.00  0.00     0.047 A 
ATOM     20  C   UNL     1       9.512   9.353  -5.607  1.00  0.00     0.047 A 
ATOM     21  C   UNL     1      10.447   9.145  -3.000  1.00  0.00     0.012 A 
ATOM     22  C   UNL     1       8.768   8.653  -4.653  1.00  0.00     0.012 A 
BRANCH  18  23
ATOM     23  O   UNL     1      11.346  10.606  -6.294  1.00  0.00    -0.490 OA
BRANCH  23  24
ATOM     24  C   UNL     1      11.190  12.020  -6.413  1.00  0.00     0.257 C 
BRANCH  24  25
ATOM     25  C   UNL     1       9.842  12.435  -5.901  1.00  0.00     0.006 C 
ATOM     26  C   UNL     1       9.617  12.991  -4.703  1.00  0.00     0.007 C 
ENDBRANCH  24  25
ENDBRANCH  23  24
ENDBRANCH  18  23
ENDBRANCH   1  17
BRANCH   8  27
ATOM     27  C   UNL     1       2.370   6.694   1.872  1.00  0.00    -0.018 A 
ATOM     28  C   UNL     1       2.044   5.345   1.680  1.00  0.00     0.012 A 
ATOM     29  C   UNL     1       1.930   7.328   3.042  1.00  0.00     0.012 A 
ATOM     30  C   UNL     1       1.304   4.652   2.641  1.00  0.00     0.047 A 
ATOM     31  C   UNL     1       1.189   6.630   4.004  1.00  0.00     0.047 A 
ATOM     32  C   UNL     1       0.880   5.286   3.811  1.00  0.00     0.119 A 
BRANCH  32  33
ATOM     33  O   UNL     1       0.161   4.491   4.659  1.00  0.00    -0.490 OA
BRANCH  33  34
ATOM     34  C   UNL     1       0.164   3.080   4.445  1.00  0.00     0.257 C 
BRANCH  34  35
ATOM     35  C   UNL     1      -1.110   2.657   3.776  1.00  0.00     0.006 C 
ATOM     36  C   UNL     1      -1.183   1.890   2.680  1.00  0.00     0.007 C 
ENDBRANCH  34  35
ENDBRANCH  33  34
ENDBRANCH  32  33
ENDBRANCH   8  27
TORSDOF 8
ENDMDL
MODEL 11
REMARK VINA RESULT:   -15.495      1.345      2.594
REMARK INTER + INTRA:         -22.892
REMARK INTER:                 -20.268
REMARK INTRA:                  -2.624
REMARK CONF_INDEPENDENT:        4.773
REMARK UNBOUND:                -2.624
REMARK SMILES C=CCOc1ccc(-c2ccc3ccc4c(-c5ccc(OCC=C)cc5)ccc5ccc2c3c54)cc1
REMARK SMILES IDX 9 1 10 2 11 3 12 4 13 5 14 6 15 7 16 8 27 9 28 10 29 11
REMARK SMILES IDX 30 12 31 13 32 14 33 15 34 16 8 17 5 18 6 19 36 20 7 21
REMARK SMILES IDX 35 22 4 23 3 24 2 25 1 26 17 27 18 28 26 29 19 30 25 31
REMARK SMILES IDX 20 32 21 33 22 34 23 35 24 36
REMARK H PARENT
REMARK Flexibility Score: inf
ROOT
ATOM      1  C   UNL     1       1.086   5.386  -0.648  1.00  0.00    -0.010 A 
ATOM      2  C   UNL     1       0.385   6.582  -0.867  1.00  0.00     0.010 A 
ATOM      3  C   UNL     1       0.823   7.507  -1.810  1.00  0.00     0.009 A 
ATOM      4  C   UNL     1       1.977   7.260  -2.560  1.00  0.00    -0.017 A 
ATOM      5  C   UNL     1       2.414   8.190  -3.506  1.00  0.00     0.009 A 
ATOM      6  C   UNL     1       3.564   7.951  -4.258  1.00  0.00     0.010 A 
ATOM      7  C   UNL     1       4.324   6.776  -4.097  1.00  0.00    -0.009 A 
ATOM      8  C   UNL     1       5.501   6.508  -4.852  1.00  0.00    -0.010 A 
ATOM      9  C   UNL     1       6.202   5.312  -4.633  1.00  0.00     0.010 A 
ATOM     10  C   UNL     1       5.764   4.386  -3.691  1.00  0.00     0.009 A 
ATOM     11  C   UNL     1       4.610   4.631  -2.940  1.00  0.00    -0.017 A 
ATOM     12  C   UNL     1       4.173   3.702  -1.995  1.00  0.00     0.009 A 
ATOM     13  C   UNL     1       3.022   3.941  -1.242  1.00  0.00     0.010 A 
ATOM     14  C   UNL     1       2.262   5.117  -1.402  1.00  0.00    -0.009 A 
ATOM     15  C   UNL     1       2.707   6.066  -2.364  1.00  0.00    -0.002 A 
ATOM     16  C   UNL     1       3.881   5.827  -3.136  1.00  0.00    -0.002 A 
ENDROOT
BRANCH   1  17
ATOM     17  C   UNL     1       0.564   4.454   0.365  1.00  0.00    -0.018 A 
ATOM     18  C   UNL     1      -0.432   2.671   2.313  1.00  0.00     0.119 A 
ATOM     19  C   UNL     1       0.809   3.280   2.489  1.00  0.00     0.047 A 
ATOM     20  C   UNL     1      -1.179   2.967   1.171  1.00  0.00     0.047 A 
ATOM     21  C   UNL     1       1.303   4.163   1.520  1.00  0.00     0.012 A 
ATOM     22  C   UNL     1      -0.687   3.848   0.204  1.00  0.00     0.012 A 
BRANCH  18  23
ATOM     23  O   UNL     1      -1.035   1.800   3.176  1.00  0.00    -0.490 OA
BRANCH  23  24
ATOM     24  C   UNL     1      -1.302   0.469   2.734  1.00  0.00     0.257 C 
BRANCH  24  25
ATOM     25  C   UNL     1      -0.171  -0.439   3.116  1.00  0.00     0.006 C 
ATOM     26  C   UNL     1       0.949  -0.046   3.738  1.00  0.00     0.007 C 
ENDBRANCH  24  25
ENDBRANCH  23  24
ENDBRANCH  18  23
ENDBRANCH   1  17
BRANCH   8  27
ATOM     27  C   UNL     1       6.024   7.440  -5.864  1.00  0.00    -0.018 A 
ATOM     28  C   UNL     1       6.421   8.736  -5.508  1.00  0.00     0.012 A 
ATOM     29  C   UNL     1       6.125   7.055  -7.208  1.00  0.00     0.012 A 
ATOM     30  C   UNL     1       6.913   9.616  -6.475  1.00  0.00     0.047 A 
ATOM     31  C   UNL     1       6.619   7.940  -8.175  1.00  0.00     0.047 A 
ATOM     32  C   UNL     1       7.023   9.222  -7.811  1.00  0.00     0.119 A 
BRANCH  32  33
ATOM     33  O   UNL     1       7.514  10.184  -8.648  1.00  0.00    -0.490 OA
BRANCH  33  34
ATOM     34  C   UNL     1       6.847  11.445  -8.710  1.00  0.00     0.257 C 
BRANCH  34  35
ATOM     35  C   UNL     1       7.716  12.518  -8.123  1.00  0.00     0.006 C 
ATOM     36  C   UNL     1       7.955  12.681  -6.815  1.00  0.00     0.007 C 
ENDBRANCH  34  35
ENDBRANCH  33  34
ENDBRANCH  32  33
ENDBRANCH   8  27
TORSDOF 8
REMARK SMILES C=CCOc1ccc(-c2ccc3ccc4c(-c5ccc(OCC=C)cc5)ccc5ccc2c3c54)cc1
REMARK SMILES IDX 9 1 10 2 11 3 12 4 13 5 14 6 15 7 16 8 27 9 28 10 29 11
REMARK SMILES IDX 30 12 31 13 32 14 33 15 34 16 8 17 5 18 6 19 36 20 7 21
REMARK SMILES IDX 35 22 4 23 3 24 2 25 1 26 17 27 18 28 26 29 19 30 25 31
REMARK SMILES IDX 20 32 21 33 22 34 23 35 24 36
REMARK H PARENT
REMARK Flexibility Score: inf
ROOT
ATOM      1  C   UNL     1       2.654   7.879   1.276  1.00  0.00    -0.010 A 
ATOM      2  C   UNL     1       2.299   9.112   0.707  1.00  0.00     0.010 A 
ATOM      3  C   UNL     1       3.075   9.690  -0.293  1.00  0.00     0.009 A 
ATOM      4  C   UNL     1       4.230   9.049  -0.752  1.00  0.00    -0.017 A 
ATOM      5  C   UNL     1       5.007   9.631  -1.756  1.00  0.00     0.009 A 
ATOM      6  C   UNL     1       6.160   8.998  -2.219  1.00  0.00     0.010 A 
ATOM      7  C   UNL     1       6.585   7.759  -1.700  1.00  0.00    -0.009 A 
ATOM      8  C   UNL     1       7.757   7.092  -2.154  1.00  0.00    -0.010 A 
ATOM      9  C   UNL     1       8.112   5.859  -1.587  1.00  0.00     0.010 A 
ATOM     10  C   UNL     1       7.335   5.280  -0.587  1.00  0.00     0.009 A 
ATOM     11  C   UNL     1       6.181   5.920  -0.127  1.00  0.00    -0.017 A 
ATOM     12  C   UNL     1       5.404   5.338   0.876  1.00  0.00     0.009 A 
ATOM     13  C   UNL     1       4.250   5.971   1.340  1.00  0.00     0.010 A 
ATOM     14  C   UNL     1       3.826   7.211   0.821  1.00  0.00    -0.009 A 
ATOM     15  C   UNL     1       4.616   7.806  -0.200  1.00  0.00    -0.002 A 
ATOM     16  C   UNL     1       5.795   7.164  -0.679  1.00  0.00    -0.002 A 
ENDROOT
BRANCH   1  17
ATOM     17  C   UNL     1       1.786   7.328   2.329  1.00  0.00    -0.018 A 
ATOM     18  C   UNL     1       0.114   6.270   4.342  1.00  0.00     0.119 A 
ATOM     19  C   UNL     1      -0.438   6.784   3.171  1.00  0.00     0.047 A 
ATOM     20  C   UNL     1       1.502   6.272   4.498  1.00  0.00     0.047 A 
ATOM     21  C   UNL     1       0.393   7.311   2.173  1.00  0.00     0.012 A 
ATOM     22  C   UNL     1       2.332   6.798   3.504  1.00  0.00     0.012 A 
BRANCH  18  23
ATOM     23  O   UNL     1      -0.574   5.722   5.387  1.00  0.00    -0.490 OA
BRANCH  23  24
ATOM     24  C   UNL     1      -1.264   4.489   5.184  1.00  0.00     0.257 C 
BRANCH  24  25
ATOM     25  C   UNL     1      -0.387   3.336   5.575  1.00  0.00     0.006 C 
ATOM     26  C   UNL     1       0.916   3.431   5.869  1.00  0.00     0.007 C 
ENDBRANCH  24  25
ENDBRANCH  23  24
ENDBRANCH  18  23
ENDBRANCH   1  17
BRANCH   8  27
ATOM     27  C   UNL     1       8.626   7.644  -3.207  1.00  0.00    -0.018 A 
ATOM     28  C   UNL     1       8.977   9.000  -3.208  1.00  0.00     0.012 A 
ATOM     29  C   UNL     1       9.111   6.826  -4.237  1.00  0.00     0.012 A 
ATOM     30  C   UNL     1       9.800   9.517  -4.212  1.00  0.00     0.047 A 
ATOM     31  C   UNL     1       9.936   7.347  -5.242  1.00  0.00     0.047 A 
ATOM     32  C   UNL     1      10.291   8.695  -5.229  1.00  0.00     0.119 A 
BRANCH  32  33
ATOM     33  O   UNL     1      11.077   9.332  -6.146  1.00  0.00    -0.490 OA
BRANCH  33  34
ATOM     34  C   UNL     1      10.449  10.030  -7.222  1.00  0.00     0.257 C 
BRANCH  34  35
ATOM     35  C   UNL     1      10.554   9.231  -8.487  1.00  0.00     0.006 C 
ATOM     36  C   UNL     1      10.072   7.992  -8.654  1.00  0.00     0.007 C 
ENDBRANCH  34  35
ENDBRANCH  33  34
ENDBRANCH  32  33
ENDBRANCH   8  27
TORSDOF 8
ENDMDL
MODEL 12
REMARK VINA RESULT:   -15.465      1.493      8.103
REMARK INTER + INTRA:         -22.949
REMARK INTER:                 -20.238
REMARK INTRA:                  -2.711
REMARK CONF_INDEPENDENT:        4.773
REMARK UNBOUND:                -2.711
REMARK SMILES C=CCOc1ccc(-c2ccc3ccc4c(-c5ccc(OCC=C)cc5)ccc5ccc2c3c54)cc1
REMARK SMILES IDX 9 1 10 2 11 3 12 4 13 5 14 6 15 7 16 8 27 9 28 10 29 11
REMARK SMILES IDX 30 12 31 13 32 14 33 15 34 16 8 17 5 18 6 19 36 20 7 21
REMARK SMILES IDX 35 22 4 23 3 24 2 25 1 26 17 27 18 28 26 29 19 30 25 31
REMARK SMILES IDX 20 32 21 33 22 34 23 35 24 36
REMARK H PARENT
REMARK Flexibility Score: inf
ROOT
ATOM      1  C   UNL     1       1.757   6.306  -2.147  1.00  0.00    -0.010 A 
ATOM      2  C   UNL     1       1.576   7.430  -2.969  1.00  0.00     0.010 A 
ATOM      3  C   UNL     1       2.554   7.815  -3.881  1.00  0.00     0.009 A 
ATOM      4  C   UNL     1       3.742   7.086  -3.995  1.00  0.00    -0.017 A 
ATOM      5  C   UNL     1       4.722   7.475  -4.911  1.00  0.00     0.009 A 
ATOM      6  C   UNL     1       5.909   6.753  -5.031  1.00  0.00     0.010 A 
ATOM      7  C   UNL     1       6.167   5.614  -4.241  1.00  0.00    -0.009 A 
ATOM      8  C   UNL     1       7.370   4.860  -4.343  1.00  0.00    -0.010 A 
ATOM      9  C   UNL     1       7.550   3.737  -3.522  1.00  0.00     0.010 A 
ATOM     10  C   UNL     1       6.572   3.350  -2.611  1.00  0.00     0.009 A 
ATOM     11  C   UNL     1       5.384   4.078  -2.496  1.00  0.00    -0.017 A 
ATOM     12  C   UNL     1       4.404   3.690  -1.581  1.00  0.00     0.009 A 
ATOM     13  C   UNL     1       3.216   4.412  -1.461  1.00  0.00     0.010 A 
ATOM     14  C   UNL     1       2.958   5.552  -2.249  1.00  0.00    -0.009 A 
ATOM     15  C   UNL     1       3.955   5.950  -3.182  1.00  0.00    -0.002 A 
ATOM     16  C   UNL     1       5.171   5.216  -3.309  1.00  0.00    -0.002 A 
ENDROOT
BRANCH   1  17
ATOM     17  C   UNL     1       0.679   5.958  -1.207  1.00  0.00    -0.018 A 
ATOM     18  C   UNL     1      -1.384   5.281   0.597  1.00  0.00     0.119 A 
ATOM     19  C   UNL     1      -0.728   4.285  -0.124  1.00  0.00     0.047 A 
ATOM     20  C   UNL     1      -0.997   6.612   0.426  1.00  0.00     0.047 A 
ATOM     21  C   UNL     1       0.294   4.622  -1.021  1.00  0.00     0.012 A 
ATOM     22  C   UNL     1       0.023   6.950  -0.468  1.00  0.00     0.012 A 
BRANCH  18  23
ATOM     23  O   UNL     1      -2.388   5.094   1.504  1.00  0.00    -0.490 OA
BRANCH  23  24
ATOM     24  C   UNL     1      -2.517   6.018   2.585  1.00  0.00     0.257 C 
BRANCH  24  25
ATOM     25  C   UNL     1      -2.956   5.301   3.828  1.00  0.00     0.006 C 
ATOM     26  C   UNL     1      -2.730   4.006   4.084  1.00  0.00     0.007 C 
ENDBRANCH  24  25
ENDBRANCH  23  24
ENDBRANCH  18  23
ENDBRANCH   1  17
BRANCH   8  27
ATOM     27  C   UNL     1       8.448   5.210  -5.283  1.00  0.00    -0.018 A 
ATOM     28  C   UNL     1       9.715   5.583  -4.815  1.00  0.00     0.012 A 
ATOM     29  C   UNL     1       8.226   5.189  -6.667  1.00  0.00     0.012 A 
ATOM     30  C   UNL     1      10.731   5.916  -5.713  1.00  0.00     0.047 A 
ATOM     31  C   UNL     1       9.248   5.523  -7.565  1.00  0.00     0.047 A 
ATOM     32  C   UNL     1      10.509   5.880  -7.091  1.00  0.00     0.119 A 
BRANCH  32  33
ATOM     33  O   UNL     1      11.587   6.235  -7.851  1.00  0.00    -0.490 OA
BRANCH  33  34
ATOM     34  C   UNL     1      11.768   7.611  -8.184  1.00  0.00     0.257 C 
BRANCH  34  35
ATOM     35  C   UNL     1      10.609   8.103  -8.999  1.00  0.00     0.006 C 
ATOM     36  C   UNL     1      10.200   9.377  -9.060  1.00  0.00     0.007 C 
ENDBRANCH  34  35
ENDBRANCH  33  34
ENDBRANCH  32  33
ENDBRANCH   8  27
TORSDOF 8
REMARK SMILES C=CCOc1ccc(-c2ccc3ccc4c(-c5ccc(OCC=C)cc5)ccc5ccc2c3c54)cc1
REMARK SMILES IDX 9 1 10 2 11 3 12 4 13 5 14 6 15 7 16 8 27 9 28 10 29 11
REMARK SMILES IDX 30 12 31 13 32 14 33 15 34 16 8 17 5 18 6 19 36 20 7 21
REMARK SMILES IDX 35 22 4 23 3 24 2 25 1 26 17 27 18 28 26 29 19 30 25 31
REMARK SMILES IDX 20 32 21 33 22 34 23 35 24 36
REMARK H PARENT
REMARK Flexibility Score: inf
ROOT
ATOM      1  C   UNL     1       8.303   7.825  -2.464  1.00  0.00    -0.010 A 
ATOM      2  C   UNL     1       8.917   6.698  -1.895  1.00  0.00     0.010 A 
ATOM      3  C   UNL     1       8.278   5.957  -0.905  1.00  0.00     0.009 A 
ATOM      4  C   UNL     1       7.006   6.324  -0.457  1.00  0.00    -0.017 A 
ATOM      5  C   UNL     1       6.367   5.578   0.536  1.00  0.00     0.009 A 
ATOM      6  C   UNL     1       5.098   5.938   0.989  1.00  0.00     0.010 A 
ATOM      7  C   UNL     1       4.415   7.056   0.470  1.00  0.00    -0.009 A 
ATOM      8  C   UNL     1       3.119   7.445   0.914  1.00  0.00    -0.010 A 
ATOM      9  C   UNL     1       2.505   8.571   0.345  1.00  0.00     0.010 A 
ATOM     10  C   UNL     1       3.143   9.312  -0.646  1.00  0.00     0.009 A 
ATOM     11  C   UNL     1       4.416   8.946  -1.095  1.00  0.00    -0.017 A 
ATOM     12  C   UNL     1       5.054   9.690  -2.088  1.00  0.00     0.009 A 
ATOM     13  C   UNL     1       6.324   9.331  -2.541  1.00  0.00     0.010 A 
ATOM     14  C   UNL     1       7.008   8.214  -2.021  1.00  0.00    -0.009 A 
ATOM     15  C   UNL     1       6.360   7.454  -1.008  1.00  0.00    -0.002 A 
ATOM     16  C   UNL     1       5.062   7.816  -0.542  1.00  0.00    -0.002 A 
ENDROOT
BRANCH   1  17
ATOM     17  C   UNL     1       9.038   8.560  -3.506  1.00  0.00    -0.018 A 
ATOM     18  C   UNL     1      10.440   9.970  -5.510  1.00  0.00     0.119 A 
ATOM     19  C   UNL     1       9.238   9.332  -5.811  1.00  0.00     0.047 A 
ATOM     20  C   UNL     1      10.930   9.915  -4.204  1.00  0.00     0.047 A 
ATOM     21  C   UNL     1       8.544   8.631  -4.817  1.00  0.00     0.012 A 
ATOM     22  C   UNL     1      10.239   9.215  -3.210  1.00  0.00     0.012 A 
BRANCH  18  23
ATOM     23  O   UNL     1      11.211  10.691  -6.376  1.00  0.00    -0.490 OA
BRANCH  23  24
ATOM     24  C   UNL     1      11.037  12.107  -6.435  1.00  0.00     0.257 C 
BRANCH  24  25
ATOM     25  C   UNL     1       9.626  12.469  -6.078  1.00  0.00     0.006 C 
ATOM     26  C   UNL     1       9.258  13.601  -5.462  1.00  0.00     0.007 C 
ENDBRANCH  24  25
ENDBRANCH  23  24
ENDBRANCH  18  23
ENDBRANCH   1  17
BRANCH   8  27
ATOM     27  C   UNL     1       2.385   6.710   1.957  1.00  0.00    -0.018 A 
ATOM     28  C   UNL     1       2.006   5.376   1.763  1.00  0.00     0.012 A 
ATOM     29  C   UNL     1       2.038   7.335   3.164  1.00  0.00     0.012 A 
ATOM     30  C   UNL     1       1.306   4.686   2.756  1.00  0.00     0.047 A 
ATOM     31  C   UNL     1       1.337   6.641   4.158  1.00  0.00     0.047 A 
ATOM     32  C   UNL     1       0.975   5.309   3.961  1.00  0.00     0.119 A 
BRANCH  32  33
ATOM     33  O   UNL     1       0.287   4.521   4.839  1.00  0.00    -0.490 OA
BRANCH  33  34
ATOM     34  C   UNL     1       0.874   3.289   5.261  1.00  0.00     0.257 C 
BRANCH  34  35
ATOM     35  C   UNL     1       0.113   2.131   4.687  1.00  0.00     0.006 C 
ATOM     36  C   UNL     1       0.202   1.708   3.419  1.00  0.00     0.007 C 
ENDBRANCH  34  35
ENDBRANCH  33  34
ENDBRANCH  32  33
ENDBRANCH   8  27
TORSDOF 8
ENDMDL
MODEL 13
REMARK VINA RESULT:   -15.155      1.652      8.051
REMARK INTER + INTRA:         -22.044
REMARK INTER:                 -19.928
REMARK INTRA:                  -2.116
REMARK CONF_INDEPENDENT:        4.773
REMARK UNBOUND:                -2.116
REMARK SMILES C=CCOc1ccc(-c2ccc3ccc4c(-c5ccc(OCC=C)cc5)ccc5ccc2c3c54)cc1
REMARK SMILES IDX 9 1 10 2 11 3 12 4 13 5 14 6 15 7 16 8 27 9 28 10 29 11
REMARK SMILES IDX 30 12 31 13 32 14 33 15 34 16 8 17 5 18 6 19 36 20 7 21
REMARK SMILES IDX 35 22 4 23 3 24 2 25 1 26 17 27 18 28 26 29 19 30 25 31
REMARK SMILES IDX 20 32 21 33 22 34 23 35 24 36
REMARK H PARENT
REMARK Flexibility Score: inf
ROOT
ATOM      1  C   UNL     1       1.477   6.618  -2.290  1.00  0.00    -0.010 A 
ATOM      2  C   UNL     1       1.277   7.989  -2.065  1.00  0.00     0.010 A 
ATOM      3  C   UNL     1       2.263   8.918  -2.382  1.00  0.00     0.009 A 
ATOM      4  C   UNL     1       3.478   8.500  -2.933  1.00  0.00    -0.017 A 
ATOM      5  C   UNL     1       4.466   9.435  -3.251  1.00  0.00     0.009 A 
ATOM      6  C   UNL     1       5.681   9.026  -3.801  1.00  0.00     0.010 A 
ATOM      7  C   UNL     1       5.959   7.668  -4.056  1.00  0.00    -0.009 A 
ATOM      8  C   UNL     1       7.191   7.224  -4.616  1.00  0.00    -0.010 A 
ATOM      9  C   UNL     1       7.390   5.854  -4.842  1.00  0.00     0.010 A 
ATOM     10  C   UNL     1       6.403   4.924  -4.526  1.00  0.00     0.009 A 
ATOM     11  C   UNL     1       5.188   5.341  -3.975  1.00  0.00    -0.017 A 
ATOM     12  C   UNL     1       4.200   4.407  -3.659  1.00  0.00     0.009 A 
ATOM     13  C   UNL     1       2.984   4.816  -3.108  1.00  0.00     0.010 A 
ATOM     14  C   UNL     1       2.707   6.173  -2.851  1.00  0.00    -0.009 A 
ATOM     15  C   UNL     1       3.712   7.127  -3.172  1.00  0.00    -0.002 A 
ATOM     16  C   UNL     1       4.955   6.715  -3.735  1.00  0.00    -0.002 A 
ENDROOT
BRANCH   1  17
ATOM     17  C   UNL     1       0.389   5.693  -1.931  1.00  0.00    -0.018 A 
ATOM     18  C   UNL     1      -1.701   3.923  -1.249  1.00  0.00     0.119 A 
ATOM     19  C   UNL     1      -1.978   5.103  -1.935  1.00  0.00     0.047 A 
ATOM     20  C   UNL     1      -0.378   3.623  -0.918  1.00  0.00     0.047 A 
ATOM     21  C   UNL     1      -0.940   5.982  -2.272  1.00  0.00     0.012 A 
ATOM     22  C   UNL     1       0.659   4.498  -1.253  1.00  0.00     0.012 A 
BRANCH  18  23
ATOM     23  O   UNL     1      -2.610   2.978  -0.867  1.00  0.00    -0.490 OA
BRANCH  23  24
ATOM     24  C   UNL     1      -2.831   1.853  -1.718  1.00  0.00     0.257 C 
BRANCH  24  25
ATOM     25  C   UNL     1      -1.756   0.828  -1.507  1.00  0.00     0.006 C 
ATOM     26  C   UNL     1      -1.426  -0.128  -2.387  1.00  0.00     0.007 C 
ENDBRANCH  24  25
ENDBRANCH  23  24
ENDBRANCH  18  23
ENDBRANCH   1  17
BRANCH   8  27
ATOM     27  C   UNL     1       8.278   8.149  -4.974  1.00  0.00    -0.018 A 
ATOM     28  C   UNL     1       9.551   8.014  -4.405  1.00  0.00     0.012 A 
ATOM     29  C   UNL     1       8.061   9.194  -5.884  1.00  0.00     0.012 A 
ATOM     30  C   UNL     1      10.577   8.898  -4.747  1.00  0.00     0.047 A 
ATOM     31  C   UNL     1       9.092  10.077  -6.226  1.00  0.00     0.047 A 
ATOM     32  C   UNL     1      10.358   9.928  -5.664  1.00  0.00     0.119 A 
BRANCH  32  33
ATOM     33  O   UNL     1      11.446  10.720  -5.901  1.00  0.00    -0.490 OA
BRANCH  33  34
ATOM     34  C   UNL     1      11.731  11.784  -4.994  1.00  0.00     0.257 C 
BRANCH  34  35
ATOM     35  C   UNL     1      10.588  12.754  -4.960  1.00  0.00     0.006 C 
ATOM     36  C   UNL     1      10.400  13.685  -4.015  1.00  0.00     0.007 C 
ENDBRANCH  34  35
ENDBRANCH  33  34
ENDBRANCH  32  33
ENDBRANCH   8  27
TORSDOF 8
REMARK SMILES C=CCOc1ccc(-c2ccc3ccc4c(-c5ccc(OCC=C)cc5)ccc5ccc2c3c54)cc1
REMARK SMILES IDX 9 1 10 2 11 3 12 4 13 5 14 6 15 7 16 8 27 9 28 10 29 11
REMARK SMILES IDX 30 12 31 13 32 14 33 15 34 16 8 17 5 18 6 19 36 20 7 21
REMARK SMILES IDX 35 22 4 23 3 24 2 25 1 26 17 27 18 28 26 29 19 30 25 31
REMARK SMILES IDX 20 32 21 33 22 34 23 35 24 36
REMARK H PARENT
REMARK Flexibility Score: inf
ROOT
ATOM      1  C   UNL     1       6.973   7.339  -0.760  1.00  0.00    -0.010 A 
ATOM      2  C   UNL     1       7.329   5.987  -0.888  1.00  0.00     0.010 A 
ATOM      3  C   UNL     1       6.432   4.976  -0.557  1.00  0.00     0.009 A 
ATOM      4  C   UNL     1       5.153   5.290  -0.088  1.00  0.00    -0.017 A 
ATOM      5  C   UNL     1       4.255   4.273   0.243  1.00  0.00     0.009 A 
ATOM      6  C   UNL     1       2.977   4.579   0.711  1.00  0.00     0.010 A 
ATOM      7  C   UNL     1       2.544   5.910   0.869  1.00  0.00    -0.009 A 
ATOM      8  C   UNL     1       1.246   6.249   1.345  1.00  0.00    -0.010 A 
ATOM      9  C   UNL     1       0.890   7.600   1.471  1.00  0.00     0.010 A 
ATOM     10  C   UNL     1       1.786   8.612   1.139  1.00  0.00     0.009 A 
ATOM     11  C   UNL     1       3.065   8.299   0.671  1.00  0.00    -0.017 A 
ATOM     12  C   UNL     1       3.963   9.315   0.339  1.00  0.00     0.009 A 
ATOM     13  C   UNL     1       5.242   9.010  -0.130  1.00  0.00     0.010 A 
ATOM     14  C   UNL     1       5.676   7.678  -0.285  1.00  0.00    -0.009 A 
ATOM     15  C   UNL     1       4.763   6.641   0.052  1.00  0.00    -0.002 A 
ATOM     16  C   UNL     1       3.456   6.947   0.531  1.00  0.00    -0.002 A 
ENDROOT
BRANCH   1  17
ATOM     17  C   UNL     1       7.973   8.354  -1.130  1.00  0.00    -0.018 A 
ATOM     18  C   UNL     1       9.884  10.308  -1.838  1.00  0.00     0.119 A 
ATOM     19  C   UNL     1       8.527  10.544  -2.051  1.00  0.00     0.047 A 
ATOM     20  C   UNL     1      10.281   9.102  -1.258  1.00  0.00     0.047 A 
ATOM     21  C   UNL     1       7.579   9.573  -1.701  1.00  0.00     0.012 A 
ATOM     22  C   UNL     1       9.337   8.132  -0.908  1.00  0.00     0.012 A 
BRANCH  18  23
ATOM     23  O   UNL     1      10.908  11.165  -2.124  1.00  0.00    -0.490 OA
BRANCH  23  24
ATOM     24  C   UNL     1      11.723  11.641  -1.053  1.00  0.00     0.257 C 
BRANCH  24  25
ATOM     25  C   UNL     1      11.534  13.119  -0.877  1.00  0.00     0.006 C 
ATOM     26  C   UNL     1      11.043  13.702   0.225  1.00  0.00     0.007 C 
ENDBRANCH  24  25
ENDBRANCH  23  24
ENDBRANCH  18  23
ENDBRANCH   1  17
BRANCH   8  27
ATOM     27  C   UNL     1       0.247   5.233   1.715  1.00  0.00    -0.018 A 
ATOM     28  C   UNL     1       0.644   3.975   2.187  1.00  0.00     0.012 A 
ATOM     29  C   UNL     1      -1.125   5.498   1.592  1.00  0.00     0.012 A 
ATOM     30  C   UNL     1      -0.310   3.015   2.533  1.00  0.00     0.047 A 
ATOM     31  C   UNL     1      -2.079   4.534   1.940  1.00  0.00     0.047 A 
ATOM     32  C   UNL     1      -1.675   3.290   2.421  1.00  0.00     0.119 A 
BRANCH  32  33
ATOM     33  O   UNL     1      -2.495   2.261   2.788  1.00  0.00    -0.490 OA
BRANCH  33  34
ATOM     34  C   UNL     1      -2.805   1.254   1.825  1.00  0.00     0.257 C 
BRANCH  34  35
ATOM     35  C   UNL     1      -1.871   0.090   1.975  1.00  0.00     0.006 C 
ATOM     36  C   UNL     1      -1.111  -0.149   3.052  1.00  0.00     0.007 C 
ENDBRANCH  34  35
ENDBRANCH  33  34
ENDBRANCH  32  33
ENDBRANCH   8  27
TORSDOF 8
ENDMDL
MODEL 14
REMARK VINA RESULT:   -15.120      3.317      6.745
REMARK INTER + INTRA:         -22.438
REMARK INTER:                 -19.893
REMARK INTRA:                  -2.545
REMARK CONF_INDEPENDENT:        4.773
REMARK UNBOUND:                -2.545
REMARK SMILES C=CCOc1ccc(-c2ccc3ccc4c(-c5ccc(OCC=C)cc5)ccc5ccc2c3c54)cc1
REMARK SMILES IDX 9 1 10 2 11 3 12 4 13 5 14 6 15 7 16 8 27 9 28 10 29 11
REMARK SMILES IDX 30 12 31 13 32 14 33 15 34 16 8 17 5 18 6 19 36 20 7 21
REMARK SMILES IDX 35 22 4 23 3 24 2 25 1 26 17 27 18 28 26 29 19 30 25 31
REMARK SMILES IDX 20 32 21 33 22 34 23 35 24 36
REMARK H PARENT
REMARK Flexibility Score: inf
ROOT
ATOM      1  C   UNL     1       1.794   5.703  -1.770  1.00  0.00    -0.010 A 
ATOM      2  C   UNL     1       2.113   4.439  -1.249  1.00  0.00     0.010 A 
ATOM      3  C   UNL     1       3.274   3.777  -1.639  1.00  0.00     0.009 A 
ATOM      4  C   UNL     1       4.147   4.362  -2.560  1.00  0.00    -0.017 A 
ATOM      5  C   UNL     1       5.312   3.695  -2.948  1.00  0.00     0.009 A 
ATOM      6  C   UNL     1       6.188   4.272  -3.867  1.00  0.00     0.010 A 
ATOM      7  C   UNL     1       5.939   5.537  -4.436  1.00  0.00    -0.009 A 
ATOM      8  C   UNL     1       6.816   6.148  -5.376  1.00  0.00    -0.010 A 
ATOM      9  C   UNL     1       6.497   7.412  -5.895  1.00  0.00     0.010 A 
ATOM     10  C   UNL     1       5.337   8.075  -5.505  1.00  0.00     0.009 A 
ATOM     11  C   UNL     1       4.463   7.491  -4.584  1.00  0.00    -0.017 A 
ATOM     12  C   UNL     1       3.300   8.158  -4.195  1.00  0.00     0.009 A 
ATOM     13  C   UNL     1       2.423   7.581  -3.276  1.00  0.00     0.010 A 
ATOM     14  C   UNL     1       2.671   6.315  -2.708  1.00  0.00    -0.009 A 
ATOM     15  C   UNL     1       3.855   5.634  -3.103  1.00  0.00    -0.002 A 
ATOM     16  C   UNL     1       4.755   6.218  -4.041  1.00  0.00    -0.002 A 
ENDROOT
BRANCH   1  17
ATOM     17  C   UNL     1       0.551   6.345  -1.312  1.00  0.00    -0.018 A 
ATOM     18  C   UNL     1      -1.836   7.576  -0.443  1.00  0.00     0.119 A 
ATOM     19  C   UNL     1      -1.370   7.787  -1.739  1.00  0.00     0.047 A 
ATOM     20  C   UNL     1      -1.116   6.737   0.411  1.00  0.00     0.047 A 
ATOM     21  C   UNL     1      -0.184   7.177  -2.169  1.00  0.00     0.012 A 
ATOM     22  C   UNL     1       0.067   6.128  -0.016  1.00  0.00     0.012 A 
BRANCH  18  23
ATOM     23  O   UNL     1      -2.975   8.099   0.101  1.00  0.00    -0.490 OA
BRANCH  23  24
ATOM     24  C   UNL     1      -2.916   9.392   0.704  1.00  0.00     0.257 C 
BRANCH  24  25
ATOM     25  C   UNL     1      -2.695   9.263   2.182  1.00  0.00     0.006 C 
ATOM     26  C   UNL     1      -1.555   8.849   2.752  1.00  0.00     0.007 C 
ENDBRANCH  24  25
ENDBRANCH  23  24
ENDBRANCH  18  23
ENDBRANCH   1  17
BRANCH   8  27
ATOM     27  C   UNL     1       8.059   5.506  -5.834  1.00  0.00    -0.018 A 
ATOM     28  C   UNL     1       9.247   5.639  -5.103  1.00  0.00     0.012 A 
ATOM     29  C   UNL     1       8.084   4.757  -7.019  1.00  0.00     0.012 A 
ATOM     30  C   UNL     1      10.423   5.030  -5.546  1.00  0.00     0.047 A 
ATOM     31  C   UNL     1       9.265   4.147  -7.460  1.00  0.00     0.047 A 
ATOM     32  C   UNL     1      10.439   4.274  -6.720  1.00  0.00     0.119 A 
BRANCH  32  33
ATOM     33  O   UNL     1      11.656   3.740  -7.037  1.00  0.00    -0.490 OA
BRANCH  33  34
ATOM     34  C   UNL     1      11.802   2.320  -7.043  1.00  0.00     0.257 C 
BRANCH  34  35
ATOM     35  C   UNL     1      11.315   1.746  -5.746  1.00  0.00     0.006 C 
ATOM     36  C   UNL     1      10.149   1.107  -5.581  1.00  0.00     0.007 C 
ENDBRANCH  34  35
ENDBRANCH  33  34
ENDBRANCH  32  33
ENDBRANCH   8  27
TORSDOF 8
REMARK SMILES C=CCOc1ccc(-c2ccc3ccc4c(-c5ccc(OCC=C)cc5)ccc5ccc2c3c54)cc1
REMARK SMILES IDX 9 1 10 2 11 3 12 4 13 5 14 6 15 7 16 8 27 9 28 10 29 11
REMARK SMILES IDX 30 12 31 13 32 14 33 15 34 16 8 17 5 18 6 19 36 20 7 21
REMARK SMILES IDX 35 22 4 23 3 24 2 25 1 26 17 27 18 28 26 29 19 30 25 31
REMARK SMILES IDX 20 32 21 33 22 34 23 35 24 36
REMARK H PARENT
REMARK Flexibility Score: inf
ROOT
ATOM      1  C   UNL     1       8.067   6.337  -1.817  1.00  0.00    -0.010 A 
ATOM      2  C   UNL     1       8.288   7.464  -2.624  1.00  0.00     0.010 A 
ATOM      3  C   UNL     1       7.385   8.522  -2.641  1.00  0.00     0.009 A 
ATOM      4  C   UNL     1       6.234   8.482  -1.849  1.00  0.00    -0.017 A 
ATOM      5  C   UNL     1       5.329   9.546  -1.867  1.00  0.00     0.009 A 
ATOM      6  C   UNL     1       4.178   9.514  -1.079  1.00  0.00     0.010 A 
ATOM      7  C   UNL     1       3.883   8.419  -0.242  1.00  0.00    -0.009 A 
ATOM      8  C   UNL     1       2.716   8.361   0.571  1.00  0.00    -0.010 A 
ATOM      9  C   UNL     1       2.496   7.236   1.379  1.00  0.00     0.010 A 
ATOM     10  C   UNL     1       3.399   6.177   1.397  1.00  0.00     0.009 A 
ATOM     11  C   UNL     1       4.551   6.215   0.605  1.00  0.00    -0.017 A 
ATOM     12  C   UNL     1       5.455   5.153   0.624  1.00  0.00     0.009 A 
ATOM     13  C   UNL     1       6.607   5.185  -0.164  1.00  0.00     0.010 A 
ATOM     14  C   UNL     1       6.901   6.279  -1.003  1.00  0.00    -0.009 A 
ATOM     15  C   UNL     1       5.980   7.362  -1.024  1.00  0.00    -0.002 A 
ATOM     16  C   UNL     1       4.803   7.336  -0.221  1.00  0.00    -0.002 A 
ENDROOT
BRANCH   1  17
ATOM     17  C   UNL     1       9.065   5.256  -1.850  1.00  0.00    -0.018 A 
ATOM     18  C   UNL     1      10.986   3.188  -1.910  1.00  0.00     0.119 A 
ATOM     19  C   UNL     1      11.390   4.519  -1.837  1.00  0.00     0.047 A 
ATOM     20  C   UNL     1       9.621   2.893  -1.937  1.00  0.00     0.047 A 
ATOM     21  C   UNL     1      10.436   5.545  -1.809  1.00  0.00     0.012 A 
ATOM     22  C   UNL     1       8.668   3.915  -1.910  1.00  0.00     0.012 A 
BRANCH  18  23
ATOM     23  O   UNL     1      11.804   2.095  -1.936  1.00  0.00    -0.490 OA
BRANCH  23  24
ATOM     24  C   UNL     1      11.386   0.908  -1.261  1.00  0.00     0.257 C 
BRANCH  24  25
ATOM     25  C   UNL     1      10.872  -0.096  -2.250  1.00  0.00     0.006 C 
ATOM     26  C   UNL     1       9.576  -0.334  -2.495  1.00  0.00     0.007 C 
ENDBRANCH  24  25
ENDBRANCH  23  24
ENDBRANCH  18  23
ENDBRANCH   1  17
BRANCH   8  27
ATOM     27  C   UNL     1       1.717   9.442   0.603  1.00  0.00    -0.018 A 
ATOM     28  C   UNL     1       1.524  10.205   1.762  1.00  0.00     0.012 A 
ATOM     29  C   UNL     1       0.929   9.723  -0.521  1.00  0.00     0.012 A 
ATOM     30  C   UNL     1       0.571  11.227   1.786  1.00  0.00     0.047 A 
ATOM     31  C   UNL     1      -0.024  10.748  -0.494  1.00  0.00     0.047 A 
ATOM     32  C   UNL     1      -0.201  11.511   0.658  1.00  0.00     0.119 A 
BRANCH  32  33
ATOM     33  O   UNL     1      -1.096  12.530   0.824  1.00  0.00    -0.490 OA
BRANCH  33  34
ATOM     34  C   UNL     1      -1.030  13.650  -0.059  1.00  0.00     0.257 C 
BRANCH  34  35
ATOM     35  C   UNL     1      -1.887  13.409  -1.266  1.00  0.00     0.006 C 
ATOM     36  C   UNL     1      -3.021  12.695  -1.270  1.00  0.00     0.007 C 
ENDBRANCH  34  35
ENDBRANCH  33  34
ENDBRANCH  32  33
ENDBRANCH   8  27
TORSDOF 8
ENDMDL
MODEL 15
REMARK VINA RESULT:   -14.672      2.666      8.777
REMARK INTER + INTRA:         -21.956
REMARK INTER:                 -19.445
REMARK INTRA:                  -2.512
REMARK CONF_INDEPENDENT:        4.773
REMARK UNBOUND:                -2.512
REMARK SMILES C=CCOc1ccc(-c2ccc3ccc4c(-c5ccc(OCC=C)cc5)ccc5ccc2c3c54)cc1
REMARK SMILES IDX 9 1 10 2 11 3 12 4 13 5 14 6 15 7 16 8 27 9 28 10 29 11
REMARK SMILES IDX 30 12 31 13 32 14 33 15 34 16 8 17 5 18 6 19 36 20 7 21
REMARK SMILES IDX 35 22 4 23 3 24 2 25 1 26 17 27 18 28 26 29 19 30 25 31
REMARK SMILES IDX 20 32 21 33 22 34 23 35 24 36
REMARK H PARENT
REMARK Flexibility Score: inf
ROOT
ATOM      1  C   UNL     1       1.240   6.974  -1.342  1.00  0.00    -0.010 A 
ATOM      2  C   UNL     1       1.121   5.857  -0.501  1.00  0.00     0.010 A 
ATOM      3  C   UNL     1       1.988   4.774  -0.621  1.00  0.00     0.009 A 
ATOM      4  C   UNL     1       2.998   4.781  -1.588  1.00  0.00    -0.017 A 
ATOM      5  C   UNL     1       3.867   3.693  -1.705  1.00  0.00     0.009 A 
ATOM      6  C   UNL     1       4.878   3.693  -2.667  1.00  0.00     0.010 A 
ATOM      7  C   UNL     1       5.062   4.776  -3.549  1.00  0.00    -0.009 A 
ATOM      8  C   UNL     1       6.085   4.800  -4.539  1.00  0.00    -0.010 A 
ATOM      9  C   UNL     1       6.204   5.917  -5.379  1.00  0.00     0.010 A 
ATOM     10  C   UNL     1       5.339   7.001  -5.258  1.00  0.00     0.009 A 
ATOM     11  C   UNL     1       4.328   6.995  -4.293  1.00  0.00    -0.017 A 
ATOM     12  C   UNL     1       3.460   8.082  -4.174  1.00  0.00     0.009 A 
ATOM     13  C   UNL     1       2.449   8.084  -3.212  1.00  0.00     0.010 A 
ATOM     14  C   UNL     1       2.263   7.000  -2.331  1.00  0.00    -0.009 A 
ATOM     15  C   UNL     1       3.145   5.891  -2.450  1.00  0.00    -0.002 A 
ATOM     16  C   UNL     1       4.180   5.884  -3.430  1.00  0.00    -0.002 A 
ENDROOT
BRANCH   1  17
ATOM     17  C   UNL     1       0.289   8.082  -1.157  1.00  0.00    -0.018 A 
ATOM     18  C   UNL     1      -1.541  10.203  -0.807  1.00  0.00     0.119 A 
ATOM     19  C   UNL     1      -1.749   9.254  -1.806  1.00  0.00     0.047 A 
ATOM     20  C   UNL     1      -0.426  10.080   0.025  1.00  0.00     0.047 A 
ATOM     21  C   UNL     1      -0.839   8.204  -1.981  1.00  0.00     0.012 A 
ATOM     22  C   UNL     1       0.483   9.033  -0.147  1.00  0.00     0.012 A 
BRANCH  18  23
ATOM     23  O   UNL     1      -2.347  11.268  -0.523  1.00  0.00    -0.490 OA
BRANCH  23  24
ATOM     24  C   UNL     1      -1.864  12.278   0.364  1.00  0.00     0.257 C 
BRANCH  24  25
ATOM     25  C   UNL     1      -1.712  13.578  -0.369  1.00  0.00     0.006 C 
ATOM     26  C   UNL     1      -0.881  13.783  -1.400  1.00  0.00     0.007 C 
ENDBRANCH  24  25
ENDBRANCH  23  24
ENDBRANCH  18  23
ENDBRANCH   1  17
BRANCH   8  27
ATOM     27  C   UNL     1       7.036   3.691  -4.725  1.00  0.00    -0.018 A 
ATOM     28  C   UNL     1       7.517   3.365  -5.999  1.00  0.00     0.012 A 
ATOM     29  C   UNL     1       7.470   2.929  -3.631  1.00  0.00     0.012 A 
ATOM     30  C   UNL     1       8.416   2.309  -6.167  1.00  0.00     0.047 A 
ATOM     31  C   UNL     1       8.372   1.872  -3.803  1.00  0.00     0.047 A 
ATOM     32  C   UNL     1       8.856   1.563  -5.072  1.00  0.00     0.119 A 
BRANCH  32  33
ATOM     33  O   UNL     1       9.729   0.558  -5.382  1.00  0.00    -0.490 OA
BRANCH  33  34
ATOM     34  C   UNL     1      11.129   0.802  -5.253  1.00  0.00     0.257 C 
BRANCH  34  35
ATOM     35  C   UNL     1      11.365   2.062  -4.473  1.00  0.00     0.006 C 
ATOM     36  C   UNL     1      11.634   3.258  -5.012  1.00  0.00     0.007 C 
ENDBRANCH  34  35
ENDBRANCH  33  34
ENDBRANCH  32  33
ENDBRANCH   8  27
TORSDOF 8
REMARK SMILES C=CCOc1ccc(-c2ccc3ccc4c(-c5ccc(OCC=C)cc5)ccc5ccc2c3c54)cc1
REMARK SMILES IDX 9 1 10 2 11 3 12 4 13 5 14 6 15 7 16 8 27 9 28 10 29 11
REMARK SMILES IDX 30 12 31 13 32 14 33 15 34 16 8 17 5 18 6 19 36 20 7 21
REMARK SMILES IDX 35 22 4 23 3 24 2 25 1 26 17 27 18 28 26 29 19 30 25 31
REMARK SMILES IDX 20 32 21 33 22 34 23 35 24 36
REMARK H PARENT
REMARK Flexibility Score: inf
ROOT
ATOM      1  C   UNL     1       8.637   6.706  -2.992  1.00  0.00    -0.010 A 
ATOM      2  C   UNL     1       8.966   5.468  -2.416  1.00  0.00     0.010 A 
ATOM      3  C   UNL     1       8.236   4.959  -1.347  1.00  0.00     0.009 A 
ATOM      4  C   UNL     1       7.155   5.674  -0.823  1.00  0.00    -0.017 A 
ATOM      5  C   UNL     1       6.423   5.160   0.250  1.00  0.00     0.009 A 
ATOM      6  C   UNL     1       5.343   5.868   0.777  1.00  0.00     0.010 A 
ATOM      7  C   UNL     1       4.949   7.117   0.256  1.00  0.00    -0.009 A 
ATOM      8  C   UNL     1       3.852   7.860   0.776  1.00  0.00    -0.010 A 
ATOM      9  C   UNL     1       3.523   9.096   0.200  1.00  0.00     0.010 A 
ATOM     10  C   UNL     1       4.252   9.606  -0.871  1.00  0.00     0.009 A 
ATOM     11  C   UNL     1       5.334   8.891  -1.394  1.00  0.00    -0.017 A 
ATOM     12  C   UNL     1       6.065   9.404  -2.467  1.00  0.00     0.009 A 
ATOM     13  C   UNL     1       7.145   8.696  -2.995  1.00  0.00     0.010 A 
ATOM     14  C   UNL     1       7.540   7.448  -2.473  1.00  0.00    -0.009 A 
ATOM     15  C   UNL     1       6.797   6.923  -1.380  1.00  0.00    -0.002 A 
ATOM     16  C   UNL     1       5.692   7.642  -0.836  1.00  0.00    -0.002 A 
ENDROOT
BRANCH   1  17
ATOM     17  C   UNL     1       9.454   7.182  -4.120  1.00  0.00    -0.018 A 
ATOM     18  C   UNL     1      11.015   8.090  -6.289  1.00  0.00     0.119 A 
ATOM     19  C   UNL     1      10.250   6.931  -6.412  1.00  0.00     0.047 A 
ATOM     20  C   UNL     1      10.986   8.800  -5.087  1.00  0.00     0.047 A 
ATOM     21  C   UNL     1       9.477   6.480  -5.334  1.00  0.00     0.012 A 
ATOM     22  C   UNL     1      10.215   8.351  -4.011  1.00  0.00     0.012 A 
BRANCH  18  23
ATOM     23  O   UNL     1      11.804   8.644  -7.257  1.00  0.00    -0.490 OA
BRANCH  23  24
ATOM     24  C   UNL     1      11.366   9.843  -7.896  1.00  0.00     0.257 C 
BRANCH  24  25
ATOM     25  C   UNL     1       9.977   9.664  -8.434  1.00  0.00     0.006 C 
ATOM     26  C   UNL     1       8.856  10.011  -7.789  1.00  0.00     0.007 C 
ENDBRANCH  24  25
ENDBRANCH  23  24
ENDBRANCH  18  23
ENDBRANCH   1  17
BRANCH   8  27
ATOM     27  C   UNL     1       3.036   7.384   1.905  1.00  0.00    -0.018 A 
ATOM     28  C   UNL     1       2.836   6.014   2.118  1.00  0.00     0.012 A 
ATOM     29  C   UNL     1       2.431   8.293   2.785  1.00  0.00     0.012 A 
ATOM     30  C   UNL     1       2.057   5.570   3.190  1.00  0.00     0.047 A 
ATOM     31  C   UNL     1       1.652   7.845   3.859  1.00  0.00     0.047 A 
ATOM     32  C   UNL     1       1.468   6.480   4.071  1.00  0.00     0.119 A 
BRANCH  32  33
ATOM     33  O   UNL     1       0.731   5.909   5.069  1.00  0.00    -0.490 OA
BRANCH  33  34
ATOM     34  C   UNL     1      -0.491   5.254   4.729  1.00  0.00     0.257 C 
BRANCH  34  35
ATOM     35  C   UNL     1      -1.270   6.086   3.754  1.00  0.00     0.006 C 
ATOM     36  C   UNL     1      -1.250   5.928   2.424  1.00  0.00     0.007 C 
ENDBRANCH  34  35
ENDBRANCH  33  34
ENDBRANCH  32  33
ENDBRANCH   8  27
TORSDOF 8
ENDMDL
MODEL 16
REMARK VINA RESULT:   -14.574      2.844      9.356
REMARK INTER + INTRA:         -22.262
REMARK INTER:                 -19.347
REMARK INTRA:                  -2.915
REMARK CONF_INDEPENDENT:        4.773
REMARK UNBOUND:                -2.915
REMARK SMILES C=CCOc1ccc(-c2ccc3ccc4c(-c5ccc(OCC=C)cc5)ccc5ccc2c3c54)cc1
REMARK SMILES IDX 9 1 10 2 11 3 12 4 13 5 14 6 15 7 16 8 27 9 28 10 29 11
REMARK SMILES IDX 30 12 31 13 32 14 33 15 34 16 8 17 5 18 6 19 36 20 7 21
REMARK SMILES IDX 35 22 4 23 3 24 2 25 1 26 17 27 18 28 26 29 19 30 25 31
REMARK SMILES IDX 20 32 21 33 22 34 23 35 24 36
REMARK H PARENT
REMARK Flexibility Score: inf
ROOT
ATOM      1  C   UNL     1       6.203   8.325  -3.835  1.00  0.00    -0.010 A 
ATOM      2  C   UNL     1       6.501   7.137  -4.520  1.00  0.00     0.010 A 
ATOM      3  C   UNL     1       5.603   6.074  -4.535  1.00  0.00     0.009 A 
ATOM      4  C   UNL     1       4.381   6.170  -3.864  1.00  0.00    -0.017 A 
ATOM      5  C   UNL     1       3.481   5.102  -3.881  1.00  0.00     0.009 A 
ATOM      6  C   UNL     1       2.260   5.190  -3.214  1.00  0.00     0.010 A 
ATOM      7  C   UNL     1       1.886   6.348  -2.502  1.00  0.00    -0.009 A 
ATOM      8  C   UNL     1       0.646   6.464  -1.812  1.00  0.00    -0.010 A 
ATOM      9  C   UNL     1       0.348   7.652  -1.128  1.00  0.00     0.010 A 
ATOM     10  C   UNL     1       1.245   8.716  -1.113  1.00  0.00     0.009 A 
ATOM     11  C   UNL     1       2.468   8.621  -1.784  1.00  0.00    -0.017 A 
ATOM     12  C   UNL     1       3.366   9.689  -1.768  1.00  0.00     0.009 A 
ATOM     13  C   UNL     1       4.588   9.600  -2.436  1.00  0.00     0.010 A 
ATOM     14  C   UNL     1       4.963   8.442  -3.146  1.00  0.00    -0.009 A 
ATOM     15  C   UNL     1       4.049   7.352  -3.164  1.00  0.00    -0.002 A 
ATOM     16  C   UNL     1       2.799   7.437  -2.484  1.00  0.00    -0.002 A 
ENDROOT
BRANCH   1  17
ATOM     17  C   UNL     1       7.199   9.408  -3.862  1.00  0.00    -0.018 A 
ATOM     18  C   UNL     1       9.113  11.482  -3.908  1.00  0.00     0.119 A 
ATOM     19  C   UNL     1       8.674  10.960  -2.693  1.00  0.00     0.047 A 
ATOM     20  C   UNL     1       8.606  10.956  -5.097  1.00  0.00     0.047 A 
ATOM     21  C   UNL     1       7.722   9.931  -2.672  1.00  0.00     0.012 A 
ATOM     22  C   UNL     1       7.656   9.931  -5.078  1.00  0.00     0.012 A 
BRANCH  18  23
ATOM     23  O   UNL     1      10.037  12.475  -4.074  1.00  0.00    -0.490 OA
BRANCH  23  24
ATOM     24  C   UNL     1       9.905  13.671  -3.305  1.00  0.00     0.257 C 
BRANCH  24  25
ATOM     25  C   UNL     1      10.913  13.685  -2.194  1.00  0.00     0.006 C 
ATOM     26  C   UNL     1      11.006  12.756  -1.233  1.00  0.00     0.007 C 
ENDBRANCH  24  25
ENDBRANCH  23  24
ENDBRANCH  18  23
ENDBRANCH   1  17
BRANCH   8  27
ATOM     27  C   UNL     1      -0.350   5.380  -1.784  1.00  0.00    -0.018 A 
ATOM     28  C   UNL     1      -0.215   4.305  -0.896  1.00  0.00     0.012 A 
ATOM     29  C   UNL     1      -1.449   5.395  -2.654  1.00  0.00     0.012 A 
ATOM     30  C   UNL     1      -1.163   3.279  -0.878  1.00  0.00     0.047 A 
ATOM     31  C   UNL     1      -2.398   4.365  -2.632  1.00  0.00     0.047 A 
ATOM     32  C   UNL     1      -2.263   3.306  -1.737  1.00  0.00     0.119 A 
BRANCH  32  33
ATOM     33  O   UNL     1      -3.106   2.237  -1.616  1.00  0.00    -0.490 OA
BRANCH  33  34
ATOM     34  C   UNL     1      -2.914   1.112  -2.472  1.00  0.00     0.257 C 
BRANCH  34  35
ATOM     35  C   UNL     1      -1.966   0.136  -1.839  1.00  0.00     0.006 C 
ATOM     36  C   UNL     1      -0.893  -0.391  -2.442  1.00  0.00     0.007 C 
ENDBRANCH  34  35
ENDBRANCH  33  34
ENDBRANCH  32  33
ENDBRANCH   8  27
TORSDOF 8
REMARK SMILES C=CCOc1ccc(-c2ccc3ccc4c(-c5ccc(OCC=C)cc5)ccc5ccc2c3c54)cc1
REMARK SMILES IDX 9 1 10 2 11 3 12 4 13 5 14 6 15 7 16 8 27 9 28 10 29 11
REMARK SMILES IDX 30 12 31 13 32 14 33 15 34 16 8 17 5 18 6 19 36 20 7 21
REMARK SMILES IDX 35 22 4 23 3 24 2 25 1 26 17 27 18 28 26 29 19 30 25 31
REMARK SMILES IDX 20 32 21 33 22 34 23 35 24 36
REMARK H PARENT
REMARK Flexibility Score: inf
ROOT
ATOM      1  C   UNL     1       2.917   7.021   1.440  1.00  0.00    -0.010 A 
ATOM      2  C   UNL     1       2.114   5.878   1.303  1.00  0.00     0.010 A 
ATOM      3  C   UNL     1       2.540   4.789   0.549  1.00  0.00     0.009 A 
ATOM      4  C   UNL     1       3.783   4.814  -0.090  1.00  0.00    -0.017 A 
ATOM      5  C   UNL     1       4.208   3.719  -0.847  1.00  0.00     0.009 A 
ATOM      6  C   UNL     1       5.447   3.737  -1.487  1.00  0.00     0.010 A 
ATOM      7  C   UNL     1       6.311   4.846  -1.400  1.00  0.00    -0.009 A 
ATOM      8  C   UNL     1       7.580   4.890  -2.045  1.00  0.00    -0.010 A 
ATOM      9  C   UNL     1       8.383   6.032  -1.907  1.00  0.00     0.010 A 
ATOM     10  C   UNL     1       7.958   7.121  -1.152  1.00  0.00     0.009 A 
ATOM     11  C   UNL     1       6.715   7.098  -0.512  1.00  0.00    -0.017 A 
ATOM     12  C   UNL     1       6.290   8.191   0.244  1.00  0.00     0.009 A 
ATOM     13  C   UNL     1       5.051   8.174   0.886  1.00  0.00     0.010 A 
ATOM     14  C   UNL     1       4.186   7.065   0.797  1.00  0.00    -0.009 A 
ATOM     15  C   UNL     1       4.616   5.950   0.027  1.00  0.00    -0.002 A 
ATOM     16  C   UNL     1       5.881   5.961  -0.630  1.00  0.00    -0.002 A 
ENDROOT
BRANCH   1  17
ATOM     17  C   UNL     1       2.402   8.134   2.254  1.00  0.00    -0.018 A 
ATOM     18  C   UNL     1       1.419  10.267   3.820  1.00  0.00     0.119 A 
ATOM     19  C   UNL     1       1.942   9.129   4.433  1.00  0.00     0.047 A 
ATOM     20  C   UNL     1       1.402  10.341   2.426  1.00  0.00     0.047 A 
ATOM     21  C   UNL     1       2.428   8.071   3.654  1.00  0.00     0.012 A 
ATOM     22  C   UNL     1       1.886   9.286   1.648  1.00  0.00     0.012 A 
BRANCH  18  23
ATOM     23  O   UNL     1       0.921  11.369   4.455  1.00  0.00    -0.490 OA
BRANCH  23  24
ATOM     24  C   UNL     1       1.829  12.249   5.117  1.00  0.00     0.257 C 
BRANCH  24  25
ATOM     25  C   UNL     1       1.876  13.571   4.410  1.00  0.00     0.006 C 
ATOM     26  C   UNL     1       2.532  13.804   3.265  1.00  0.00     0.007 C 
ENDBRANCH  24  25
ENDBRANCH  23  24
ENDBRANCH  18  23
ENDBRANCH   1  17
BRANCH   8  27
ATOM     27  C   UNL     1       8.094   3.777  -2.859  1.00  0.00    -0.018 A 
ATOM     28  C   UNL     1       8.180   2.482  -2.331  1.00  0.00     0.012 A 
ATOM     29  C   UNL     1       8.522   3.991  -4.177  1.00  0.00     0.012 A 
ATOM     30  C   UNL     1       8.673   1.431  -3.109  1.00  0.00     0.047 A 
ATOM     31  C   UNL     1       9.015   2.936  -4.954  1.00  0.00     0.047 A 
ATOM     32  C   UNL     1       9.085   1.648  -4.426  1.00  0.00     0.119 A 
BRANCH  32  33
ATOM     33  O   UNL     1       9.549   0.535  -5.068  1.00  0.00    -0.490 OA
BRANCH  33  34
ATOM     34  C   UNL     1       8.605  -0.400  -5.589  1.00  0.00     0.257 C 
BRANCH  34  35
ATOM     35  C   UNL     1       7.978   0.142  -6.840  1.00  0.00     0.006 C 
ATOM     36  C   UNL     1       6.942   0.990  -6.873  1.00  0.00     0.007 C 
ENDBRANCH  34  35
ENDBRANCH  33  34
ENDBRANCH  32  33
ENDBRANCH   8  27
TORSDOF 8
ENDMDL
MODEL 17
REMARK VINA RESULT:   -14.530      2.736      5.488
REMARK INTER + INTRA:         -22.254
REMARK INTER:                 -19.303
REMARK INTRA:                  -2.951
REMARK CONF_INDEPENDENT:        4.773
REMARK UNBOUND:                -2.951
REMARK SMILES C=CCOc1ccc(-c2ccc3ccc4c(-c5ccc(OCC=C)cc5)ccc5ccc2c3c54)cc1
REMARK SMILES IDX 9 1 10 2 11 3 12 4 13 5 14 6 15 7 16 8 27 9 28 10 29 11
REMARK SMILES IDX 30 12 31 13 32 14 33 15 34 16 8 17 5 18 6 19 36 20 7 21
REMARK SMILES IDX 35 22 4 23 3 24 2 25 1 26 17 27 18 28 26 29 19 30 25 31
REMARK SMILES IDX 20 32 21 33 22 34 23 35 24 36
REMARK H PARENT
REMARK Flexibility Score: inf
ROOT
ATOM      1  C   UNL     1       1.304   6.738  -2.048  1.00  0.00    -0.010 A 
ATOM      2  C   UNL     1       1.163   8.011  -1.473  1.00  0.00     0.010 A 
ATOM      3  C   UNL     1       2.144   8.984  -1.640  1.00  0.00     0.009 A 
ATOM      4  C   UNL     1       3.293   8.711  -2.386  1.00  0.00    -0.017 A 
ATOM      5  C   UNL     1       4.275   9.690  -2.552  1.00  0.00     0.009 A 
ATOM      6  C   UNL     1       5.425   9.424  -3.296  1.00  0.00     0.010 A 
ATOM      7  C   UNL     1       5.642   8.172  -3.904  1.00  0.00    -0.009 A 
ATOM      8  C   UNL     1       6.806   7.875  -4.667  1.00  0.00    -0.010 A 
ATOM      9  C   UNL     1       6.946   6.603  -5.243  1.00  0.00     0.010 A 
ATOM     10  C   UNL     1       5.966   5.629  -5.077  1.00  0.00     0.009 A 
ATOM     11  C   UNL     1       4.815   5.901  -4.331  1.00  0.00    -0.017 A 
ATOM     12  C   UNL     1       3.833   4.923  -4.166  1.00  0.00     0.009 A 
ATOM     13  C   UNL     1       2.683   5.189  -3.422  1.00  0.00     0.010 A 
ATOM     14  C   UNL     1       2.467   6.441  -2.812  1.00  0.00    -0.009 A 
ATOM     15  C   UNL     1       3.466   7.439  -2.978  1.00  0.00    -0.002 A 
ATOM     16  C   UNL     1       4.643   7.174  -3.737  1.00  0.00    -0.002 A 
ENDROOT
BRANCH   1  17
ATOM     17  C   UNL     1       0.227   5.759  -1.831  1.00  0.00    -0.018 A 
ATOM     18  C   UNL     1      -1.843   3.884  -1.421  1.00  0.00     0.119 A 
ATOM     19  C   UNL     1      -2.075   5.029  -2.180  1.00  0.00     0.047 A 
ATOM     20  C   UNL     1      -0.573   3.671  -0.881  1.00  0.00     0.047 A 
ATOM     21  C   UNL     1      -1.047   5.960  -2.381  1.00  0.00     0.012 A 
ATOM     22  C   UNL     1       0.453   4.599  -1.080  1.00  0.00     0.012 A 
BRANCH  18  23
ATOM     23  O   UNL     1      -2.747   2.895  -1.152  1.00  0.00    -0.490 OA
BRANCH  23  24
ATOM     24  C   UNL     1      -2.275   1.660  -0.615  1.00  0.00     0.257 C 
BRANCH  24  25
ATOM     25  C   UNL     1      -2.364   0.578  -1.651  1.00  0.00     0.006 C 
ATOM     26  C   UNL     1      -1.323   0.082  -2.331  1.00  0.00     0.007 C 
ENDBRANCH  24  25
ENDBRANCH  23  24
ENDBRANCH  18  23
ENDBRANCH   1  17
BRANCH   8  27
ATOM     27  C   UNL     1       7.884   8.854  -4.884  1.00  0.00    -0.018 A 
ATOM     28  C   UNL     1       7.649  10.031  -5.606  1.00  0.00     0.012 A 
ATOM     29  C   UNL     1       9.173   8.623  -4.382  1.00  0.00     0.012 A 
ATOM     30  C   UNL     1       8.677  10.954  -5.810  1.00  0.00     0.047 A 
ATOM     31  C   UNL     1      10.201   9.551  -4.588  1.00  0.00     0.047 A 
ATOM     32  C   UNL     1       9.956  10.725  -5.296  1.00  0.00     0.119 A 
BRANCH  32  33
ATOM     33  O   UNL     1      10.865  11.706  -5.576  1.00  0.00    -0.490 OA
BRANCH  33  34
ATOM     34  C   UNL     1      10.726  12.973  -4.932  1.00  0.00     0.257 C 
BRANCH  34  35
ATOM     35  C   UNL     1      10.037  12.808  -3.610  1.00  0.00     0.006 C 
ATOM     36  C   UNL     1      10.645  12.466  -2.467  1.00  0.00     0.007 C 
ENDBRANCH  34  35
ENDBRANCH  33  34
ENDBRANCH  32  33
ENDBRANCH   8  27
TORSDOF 8
REMARK SMILES C=CCOc1ccc(-c2ccc3ccc4c(-c5ccc(OCC=C)cc5)ccc5ccc2c3c54)cc1
REMARK SMILES IDX 9 1 10 2 11 3 12 4 13 5 14 6 15 7 16 8 27 9 28 10 29 11
REMARK SMILES IDX 30 12 31 13 32 14 33 15 34 16 8 17 5 18 6 19 36 20 7 21
REMARK SMILES IDX 35 22 4 23 3 24 2 25 1 26 17 27 18 28 26 29 19 30 25 31
REMARK SMILES IDX 20 32 21 33 22 34 23 35 24 36
REMARK H PARENT
REMARK Flexibility Score: inf
ROOT
ATOM      1  C   UNL     1       3.138   7.003   1.234  1.00  0.00    -0.010 A 
ATOM      2  C   UNL     1       2.442   5.785   1.192  1.00  0.00     0.010 A 
ATOM      3  C   UNL     1       2.950   4.692   0.496  1.00  0.00     0.009 A 
ATOM      4  C   UNL     1       4.170   4.789  -0.179  1.00  0.00    -0.017 A 
ATOM      5  C   UNL     1       4.678   3.690  -0.877  1.00  0.00     0.009 A 
ATOM      6  C   UNL     1       5.895   3.779  -1.553  1.00  0.00     0.010 A 
ATOM      7  C   UNL     1       6.654   4.966  -1.561  1.00  0.00    -0.009 A 
ATOM      8  C   UNL     1       7.898   5.082  -2.243  1.00  0.00    -0.010 A 
ATOM      9  C   UNL     1       8.595   6.300  -2.200  1.00  0.00     0.010 A 
ATOM     10  C   UNL     1       8.088   7.392  -1.503  1.00  0.00     0.009 A 
ATOM     11  C   UNL     1       6.868   7.297  -0.828  1.00  0.00    -0.017 A 
ATOM     12  C   UNL     1       6.360   8.394  -0.129  1.00  0.00     0.009 A 
ATOM     13  C   UNL     1       5.143   8.306   0.547  1.00  0.00     0.010 A 
ATOM     14  C   UNL     1       4.383   7.120   0.553  1.00  0.00    -0.009 A 
ATOM     15  C   UNL     1       4.897   6.001  -0.158  1.00  0.00    -0.002 A 
ATOM     16  C   UNL     1       6.140   6.084  -0.850  1.00  0.00    -0.002 A 
ENDROOT
BRANCH   1  17
ATOM     17  C   UNL     1       2.541   8.115   1.990  1.00  0.00    -0.018 A 
ATOM     18  C   UNL     1       1.392  10.251   3.434  1.00  0.00     0.119 A 
ATOM     19  C   UNL     1       1.487  10.314   2.045  1.00  0.00     0.047 A 
ATOM     20  C   UNL     1       1.858   9.114   4.097  1.00  0.00     0.047 A 
ATOM     21  C   UNL     1       2.060   9.254   1.330  1.00  0.00     0.012 A 
ATOM     22  C   UNL     1       2.429   8.055   3.384  1.00  0.00     0.012 A 
BRANCH  18  23
ATOM     23  O   UNL     1       0.853  11.204   4.251  1.00  0.00    -0.490 OA
BRANCH  23  24
ATOM     24  C   UNL     1       0.164  12.306   3.660  1.00  0.00     0.257 C 
BRANCH  24  25
ATOM     25  C   UNL     1       1.073  13.497   3.575  1.00  0.00     0.006 C 
ATOM     26  C   UNL     1       2.407  13.436   3.469  1.00  0.00     0.007 C 
ENDBRANCH  24  25
ENDBRANCH  23  24
ENDBRANCH  18  23
ENDBRANCH   1  17
BRANCH   8  27
ATOM     27  C   UNL     1       8.495   3.970  -3.000  1.00  0.00    -0.018 A 
ATOM     28  C   UNL     1       8.887   4.140  -4.334  1.00  0.00     0.012 A 
ATOM     29  C   UNL     1       8.672   2.713  -2.406  1.00  0.00     0.012 A 
ATOM     30  C   UNL     1       9.449   3.079  -5.048  1.00  0.00     0.047 A 
ATOM     31  C   UNL     1       9.237   1.651  -3.124  1.00  0.00     0.047 A 
ATOM     32  C   UNL     1       9.636   1.832  -4.446  1.00  0.00     0.119 A 
BRANCH  32  33
ATOM     33  O   UNL     1      10.190   0.885  -5.261  1.00  0.00    -0.490 OA
BRANCH  33  34
ATOM     34  C   UNL     1       9.394  -0.232  -5.654  1.00  0.00     0.257 C 
BRANCH  34  35
ATOM     35  C   UNL     1       7.945   0.155  -5.695  1.00  0.00     0.006 C 
ATOM     36  C   UNL     1       7.366   0.852  -6.682  1.00  0.00     0.007 C 
ENDBRANCH  34  35
ENDBRANCH  33  34
ENDBRANCH  32  33
ENDBRANCH   8  27
TORSDOF 8
ENDMDL
MODEL 18
REMARK VINA RESULT:   -14.476      2.721      7.400
REMARK INTER + INTRA:         -22.056
REMARK INTER:                 -19.248
REMARK INTRA:                  -2.808
REMARK CONF_INDEPENDENT:        4.773
REMARK UNBOUND:                -2.808
REMARK SMILES C=CCOc1ccc(-c2ccc3ccc4c(-c5ccc(OCC=C)cc5)ccc5ccc2c3c54)cc1
REMARK SMILES IDX 9 1 10 2 11 3 12 4 13 5 14 6 15 7 16 8 27 9 28 10 29 11
REMARK SMILES IDX 30 12 31 13 32 14 33 15 34 16 8 17 5 18 6 19 36 20 7 21
REMARK SMILES IDX 35 22 4 23 3 24 2 25 1 26 17 27 18 28 26 29 19 30 25 31
REMARK SMILES IDX 20 32 21 33 22 34 23 35 24 36
REMARK H PARENT
REMARK Flexibility Score: inf
ROOT
ATOM      1  C   UNL     1       7.860   6.502  -1.550  1.00  0.00    -0.010 A 
ATOM      2  C   UNL     1       8.060   7.587  -2.418  1.00  0.00     0.010 A 
ATOM      3  C   UNL     1       7.150   8.638  -2.473  1.00  0.00     0.009 A 
ATOM      4  C   UNL     1       6.012   8.632  -1.661  1.00  0.00    -0.017 A 
ATOM      5  C   UNL     1       5.100   9.689  -1.718  1.00  0.00     0.009 A 
ATOM      6  C   UNL     1       3.963   9.690  -0.910  1.00  0.00     0.010 A 
ATOM      7  C   UNL     1       3.690   8.638  -0.013  1.00  0.00    -0.009 A 
ATOM      8  C   UNL     1       2.537   8.615   0.822  1.00  0.00    -0.010 A 
ATOM      9  C   UNL     1       2.338   7.531   1.691  1.00  0.00     0.010 A 
ATOM     10  C   UNL     1       3.249   6.480   1.747  1.00  0.00     0.009 A 
ATOM     11  C   UNL     1       4.386   6.485   0.935  1.00  0.00    -0.017 A 
ATOM     12  C   UNL     1       5.298   5.430   0.992  1.00  0.00     0.009 A 
ATOM     13  C   UNL     1       6.436   5.428   0.184  1.00  0.00     0.010 A 
ATOM     14  C   UNL     1       6.709   6.479  -0.715  1.00  0.00    -0.009 A 
ATOM     15  C   UNL     1       5.781   7.555  -0.775  1.00  0.00    -0.002 A 
ATOM     16  C   UNL     1       4.617   7.563   0.048  1.00  0.00    -0.002 A 
ENDROOT
BRANCH   1  17
ATOM     17  C   UNL     1       8.865   5.427  -1.545  1.00  0.00    -0.018 A 
ATOM     18  C   UNL     1      10.795   3.367  -1.542  1.00  0.00     0.119 A 
ATOM     19  C   UNL     1      10.421   3.976  -2.739  1.00  0.00     0.047 A 
ATOM     20  C   UNL     1      10.215   3.800  -0.348  1.00  0.00     0.047 A 
ATOM     21  C   UNL     1       9.462   4.997  -2.739  1.00  0.00     0.012 A 
ATOM     22  C   UNL     1       9.257   4.818  -0.347  1.00  0.00     0.012 A 
BRANCH  18  23
ATOM     23  O   UNL     1      11.718   2.371  -1.397  1.00  0.00    -0.490 OA
BRANCH  23  24
ATOM     24  C   UNL     1      11.351   1.037  -1.751  1.00  0.00     0.257 C 
BRANCH  24  25
ATOM     25  C   UNL     1       9.939   0.761  -1.325  1.00  0.00     0.006 C 
ATOM     26  C   UNL     1       8.883   0.730  -2.149  1.00  0.00     0.007 C 
ENDBRANCH  24  25
ENDBRANCH  23  24
ENDBRANCH  18  23
ENDBRANCH   1  17
BRANCH   8  27
ATOM     27  C   UNL     1       1.532   9.690   0.816  1.00  0.00    -0.018 A 
ATOM     28  C   UNL     1       1.433  10.586   1.889  1.00  0.00     0.012 A 
ATOM     29  C   UNL     1       0.642   9.833  -0.258  1.00  0.00     0.012 A 
ATOM     30  C   UNL     1       0.474  11.601   1.877  1.00  0.00     0.047 A 
ATOM     31  C   UNL     1      -0.318  10.853  -0.267  1.00  0.00     0.047 A 
ATOM     32  C   UNL     1      -0.401  11.747   0.798  1.00  0.00     0.119 A 
BRANCH  32  33
ATOM     33  O   UNL     1      -1.290  12.778   0.922  1.00  0.00    -0.490 OA
BRANCH  33  34
ATOM     34  C   UNL     1      -0.914  14.069   0.442  1.00  0.00     0.257 C 
BRANCH  34  35
ATOM     35  C   UNL     1      -0.516  13.988  -1.002  1.00  0.00     0.006 C 
ATOM     36  C   UNL     1      -1.370  13.994  -2.034  1.00  0.00     0.007 C 
ENDBRANCH  34  35
ENDBRANCH  33  34
ENDBRANCH  32  33
ENDBRANCH   8  27
TORSDOF 8
REMARK SMILES C=CCOc1ccc(-c2ccc3ccc4c(-c5ccc(OCC=C)cc5)ccc5ccc2c3c54)cc1
REMARK SMILES IDX 9 1 10 2 11 3 12 4 13 5 14 6 15 7 16 8 27 9 28 10 29 11
REMARK SMILES IDX 30 12 31 13 32 14 33 15 34 16 8 17 5 18 6 19 36 20 7 21
REMARK SMILES IDX 35 22 4 23 3 24 2 25 1 26 17 27 18 28 26 29 19 30 25 31
REMARK SMILES IDX 20 32 21 33 22 34 23 35 24 36
REMARK H PARENT
REMARK Flexibility Score: inf
ROOT
ATOM      1  C   UNL     1       1.285   5.682  -1.177  1.00  0.00    -0.010 A 
ATOM      2  C   UNL     1       0.711   6.905  -1.559  1.00  0.00     0.010 A 
ATOM      3  C   UNL     1       1.329   7.724  -2.498  1.00  0.00     0.009 A 
ATOM      4  C   UNL     1       2.540   7.343  -3.082  1.00  0.00    -0.017 A 
ATOM      5  C   UNL     1       3.158   8.167  -4.025  1.00  0.00     0.009 A 
ATOM      6  C   UNL     1       4.367   7.793  -4.612  1.00  0.00     0.010 A 
ATOM      7  C   UNL     1       5.008   6.582  -4.283  1.00  0.00    -0.009 A 
ATOM      8  C   UNL     1       6.241   6.177  -4.867  1.00  0.00    -0.010 A 
ATOM      9  C   UNL     1       6.815   4.954  -4.486  1.00  0.00     0.010 A 
ATOM     10  C   UNL     1       6.196   4.134  -3.547  1.00  0.00     0.009 A 
ATOM     11  C   UNL     1       4.985   4.514  -2.963  1.00  0.00    -0.017 A 
ATOM     12  C   UNL     1       4.367   3.690  -2.021  1.00  0.00     0.009 A 
ATOM     13  C   UNL     1       3.157   4.064  -1.433  1.00  0.00     0.010 A 
ATOM     14  C   UNL     1       2.517   5.276  -1.761  1.00  0.00    -0.009 A 
ATOM     15  C   UNL     1       3.145   6.117  -2.720  1.00  0.00    -0.002 A 
ATOM     16  C   UNL     1       4.380   5.741  -3.324  1.00  0.00    -0.002 A 
ENDROOT
BRANCH   1  17
ATOM     17  C   UNL     1       0.575   4.867  -0.179  1.00  0.00    -0.018 A 
ATOM     18  C   UNL     1      -0.793   3.300   1.731  1.00  0.00     0.119 A 
ATOM     19  C   UNL     1      -1.406   3.627   0.522  1.00  0.00     0.047 A 
ATOM     20  C   UNL     1       0.508   3.744   1.975  1.00  0.00     0.047 A 
ATOM     21  C   UNL     1      -0.727   4.406  -0.423  1.00  0.00     0.012 A 
ATOM     22  C   UNL     1       1.187   4.522   1.032  1.00  0.00     0.012 A 
BRANCH  18  23
ATOM     23  O   UNL     1      -1.333   2.546   2.733  1.00  0.00    -0.490 OA
BRANCH  23  24
ATOM     24  C   UNL     1      -1.169   1.128   2.691  1.00  0.00     0.257 C 
BRANCH  24  25
ATOM     25  C   UNL     1       0.240   0.761   3.054  1.00  0.00     0.006 C 
ATOM     26  C   UNL     1       0.662  -0.482   3.324  1.00  0.00     0.007 C 
ENDBRANCH  24  25
ENDBRANCH  23  24
ENDBRANCH  18  23
ENDBRANCH   1  17
BRANCH   8  27
ATOM     27  C   UNL     1       6.952   6.993  -5.865  1.00  0.00    -0.018 A 
ATOM     28  C   UNL     1       8.241   7.477  -5.608  1.00  0.00     0.012 A 
ATOM     29  C   UNL     1       6.349   7.314  -7.089  1.00  0.00     0.012 A 
ATOM     30  C   UNL     1       8.908   8.254  -6.559  1.00  0.00     0.047 A 
ATOM     31  C   UNL     1       7.020   8.092  -8.040  1.00  0.00     0.047 A 
ATOM     32  C   UNL     1       8.307   8.559  -7.782  1.00  0.00     0.119 A 
BRANCH  32  33
ATOM     33  O   UNL     1       9.070   9.330  -8.614  1.00  0.00    -0.490 OA
BRANCH  33  34
ATOM     34  C   UNL     1       9.270  10.704  -8.283  1.00  0.00     0.257 C 
BRANCH  34  35
ATOM     35  C   UNL     1       7.971  11.331  -7.871  1.00  0.00     0.006 C 
ATOM     36  C   UNL     1       7.849  12.338  -6.997  1.00  0.00     0.007 C 
ENDBRANCH  34  35
ENDBRANCH  33  34
ENDBRANCH  32  33
ENDBRANCH   8  27
TORSDOF 8
ENDMDL
MODEL 19
REMARK VINA RESULT:   -14.359      2.725     10.679
REMARK INTER + INTRA:         -22.139
REMARK INTER:                 -19.132
REMARK INTRA:                  -3.007
REMARK CONF_INDEPENDENT:        4.773
REMARK UNBOUND:                -3.007
REMARK SMILES C=CCOc1ccc(-c2ccc3ccc4c(-c5ccc(OCC=C)cc5)ccc5ccc2c3c54)cc1
REMARK SMILES IDX 9 1 10 2 11 3 12 4 13 5 14 6 15 7 16 8 27 9 28 10 29 11
REMARK SMILES IDX 30 12 31 13 32 14 33 15 34 16 8 17 5 18 6 19 36 20 7 21
REMARK SMILES IDX 35 22 4 23 3 24 2 25 1 26 17 27 18 28 26 29 19 30 25 31
REMARK SMILES IDX 20 32 21 33 22 34 23 35 24 36
REMARK H PARENT
REMARK Flexibility Score: inf
ROOT
ATOM      1  C   UNL     1       7.902   5.099  -2.218  1.00  0.00    -0.010 A 
ATOM      2  C   UNL     1       8.590   6.322  -2.176  1.00  0.00     0.010 A 
ATOM      3  C   UNL     1       8.069   7.414  -1.488  1.00  0.00     0.009 A 
ATOM      4  C   UNL     1       6.845   7.312  -0.822  1.00  0.00    -0.017 A 
ATOM      5  C   UNL     1       6.325   8.409  -0.131  1.00  0.00     0.009 A 
ATOM      6  C   UNL     1       5.104   8.315   0.536  1.00  0.00     0.010 A 
ATOM      7  C   UNL     1       4.352   7.124   0.542  1.00  0.00    -0.009 A 
ATOM      8  C   UNL     1       3.103   7.002   1.214  1.00  0.00    -0.010 A 
ATOM      9  C   UNL     1       2.416   5.779   1.174  1.00  0.00     0.010 A 
ATOM     10  C   UNL     1       2.936   4.686   0.486  1.00  0.00     0.009 A 
ATOM     11  C   UNL     1       4.161   4.787  -0.181  1.00  0.00    -0.017 A 
ATOM     12  C   UNL     1       4.681   3.690  -0.870  1.00  0.00     0.009 A 
ATOM     13  C   UNL     1       5.903   3.784  -1.538  1.00  0.00     0.010 A 
ATOM     14  C   UNL     1       6.654   4.976  -1.545  1.00  0.00    -0.009 A 
ATOM     15  C   UNL     1       6.126   6.095  -0.843  1.00  0.00    -0.002 A 
ATOM     16  C   UNL     1       4.879   6.005  -0.159  1.00  0.00    -0.002 A 
ENDROOT
BRANCH   1  17
ATOM     17  C   UNL     1       8.513   3.987  -2.964  1.00  0.00    -0.018 A 
ATOM     18  C   UNL     1       9.681   1.850  -4.391  1.00  0.00     0.119 A 
ATOM     19  C   UNL     1       9.276   1.673  -3.069  1.00  0.00     0.047 A 
ATOM     20  C   UNL     1       9.487   3.091  -5.001  1.00  0.00     0.047 A 
ATOM     21  C   UNL     1       8.698   2.735  -2.362  1.00  0.00     0.012 A 
ATOM     22  C   UNL     1       8.911   4.152  -4.296  1.00  0.00     0.012 A 
BRANCH  18  23
ATOM     23  O   UNL     1      10.248   0.903  -5.196  1.00  0.00    -0.490 OA
BRANCH  23  24
ATOM     24  C   UNL     1       9.498  -0.270  -5.510  1.00  0.00     0.257 C 
BRANCH  24  25
ATOM     25  C   UNL     1       8.046   0.073  -5.671  1.00  0.00     0.006 C 
ATOM     26  C   UNL     1       7.518   0.682  -6.742  1.00  0.00     0.007 C 
ENDBRANCH  24  25
ENDBRANCH  23  24
ENDBRANCH  18  23
ENDBRANCH   1  17
BRANCH   8  27
ATOM     27  C   UNL     1       2.492   8.114   1.960  1.00  0.00    -0.018 A 
ATOM     28  C   UNL     1       2.394   8.072   3.357  1.00  0.00     0.012 A 
ATOM     29  C   UNL     1       1.983   9.233   1.287  1.00  0.00     0.012 A 
ATOM     30  C   UNL     1       1.809   9.130   4.058  1.00  0.00     0.047 A 
ATOM     31  C   UNL     1       1.398  10.293   1.993  1.00  0.00     0.047 A 
ATOM     32  C   UNL     1       1.316  10.249   3.383  1.00  0.00     0.119 A 
BRANCH  32  33
ATOM     33  O   UNL     1       0.767  11.204   4.191  1.00  0.00    -0.490 OA
BRANCH  33  34
ATOM     34  C   UNL     1       1.592  11.826   5.176  1.00  0.00     0.257 C 
BRANCH  34  35
ATOM     35  C   UNL     1       2.027  13.182   4.705  1.00  0.00     0.006 C 
ATOM     36  C   UNL     1       2.155  13.542   3.421  1.00  0.00     0.007 C 
ENDBRANCH  34  35
ENDBRANCH  33  34
ENDBRANCH  32  33
ENDBRANCH   8  27
TORSDOF 8
REMARK SMILES C=CCOc1ccc(-c2ccc3ccc4c(-c5ccc(OCC=C)cc5)ccc5ccc2c3c54)cc1
REMARK SMILES IDX 9 1 10 2 11 3 12 4 13 5 14 6 15 7 16 8 27 9 28 10 29 11
REMARK SMILES IDX 30 12 31 13 32 14 33 15 34 16 8 17 5 18 6 19 36 20 7 21
REMARK SMILES IDX 35 22 4 23 3 24 2 25 1 26 17 27 18 28 26 29 19 30 25 31
REMARK SMILES IDX 20 32 21 33 22 34 23 35 24 36
REMARK H PARENT
REMARK Flexibility Score: inf
ROOT
ATOM      1  C   UNL     1       6.863   7.802  -4.717  1.00  0.00    -0.010 A 
ATOM      2  C   UNL     1       6.990   6.515  -5.266  1.00  0.00     0.010 A 
ATOM      3  C   UNL     1       5.998   5.557  -5.081  1.00  0.00     0.009 A 
ATOM      4  C   UNL     1       4.851   5.860  -4.342  1.00  0.00    -0.017 A 
ATOM      5  C   UNL     1       3.856   4.896  -4.159  1.00  0.00     0.009 A 
ATOM      6  C   UNL     1       2.708   5.191  -3.423  1.00  0.00     0.010 A 
ATOM      7  C   UNL     1       2.506   6.457  -2.840  1.00  0.00    -0.009 A 
ATOM      8  C   UNL     1       1.345   6.783  -2.084  1.00  0.00    -0.010 A 
ATOM      9  C   UNL     1       1.218   8.069  -1.537  1.00  0.00     0.010 A 
ATOM     10  C   UNL     1       2.209   9.028  -1.722  1.00  0.00     0.009 A 
ATOM     11  C   UNL     1       3.357   8.727  -2.461  1.00  0.00    -0.017 A 
ATOM     12  C   UNL     1       4.351   9.690  -2.644  1.00  0.00     0.009 A 
ATOM     13  C   UNL     1       5.499   9.396  -3.381  1.00  0.00     0.010 A 
ATOM     14  C   UNL     1       5.702   8.128  -3.963  1.00  0.00    -0.009 A 
ATOM     15  C   UNL     1       4.691   7.145  -3.777  1.00  0.00    -0.002 A 
ATOM     16  C   UNL     1       3.516   7.440  -3.026  1.00  0.00    -0.002 A 
ENDROOT
BRANCH   1  17
ATOM     17  C   UNL     1       7.952   8.764  -4.953  1.00  0.00    -0.018 A 
ATOM     18  C   UNL     1      10.034  10.615  -5.408  1.00  0.00     0.119 A 
ATOM     19  C   UNL     1       8.756  10.861  -5.905  1.00  0.00     0.047 A 
ATOM     20  C   UNL     1      10.265   9.452  -4.671  1.00  0.00     0.047 A 
ATOM     21  C   UNL     1       7.724   9.940  -5.681  1.00  0.00     0.012 A 
ATOM     22  C   UNL     1       9.236   8.532  -4.446  1.00  0.00     0.012 A 
BRANCH  18  23
ATOM     23  O   UNL     1      11.124  11.426  -5.545  1.00  0.00    -0.490 OA
BRANCH  23  24
ATOM     24  C   UNL     1      11.587  12.153  -4.407  1.00  0.00     0.257 C 
BRANCH  24  25
ATOM     25  C   UNL     1      10.423  12.609  -3.578  1.00  0.00     0.006 C 
ATOM     26  C   UNL     1      10.103  12.120  -2.372  1.00  0.00     0.007 C 
ENDBRANCH  24  25
ENDBRANCH  23  24
ENDBRANCH  18  23
ENDBRANCH   1  17
BRANCH   8  27
ATOM     27  C   UNL     1       0.257   5.820  -1.847  1.00  0.00    -0.018 A 
ATOM     28  C   UNL     1       0.477   4.660  -1.095  1.00  0.00     0.012 A 
ATOM     29  C   UNL     1      -1.022   6.038  -2.381  1.00  0.00     0.012 A 
ATOM     30  C   UNL     1      -0.560   3.749  -0.877  1.00  0.00     0.047 A 
ATOM     31  C   UNL     1      -2.059   5.124  -2.161  1.00  0.00     0.047 A 
ATOM     32  C   UNL     1      -1.834   3.978  -1.400  1.00  0.00     0.119 A 
BRANCH  32  33
ATOM     33  O   UNL     1      -2.750   3.005  -1.115  1.00  0.00    -0.490 OA
BRANCH  33  34
ATOM     34  C   UNL     1      -2.508   1.678  -1.584  1.00  0.00     0.257 C 
BRANCH  34  35
ATOM     35  C   UNL     1      -2.518   0.714  -0.434  1.00  0.00     0.006 C 
ATOM     36  C   UNL     1      -2.071   0.987   0.799  1.00  0.00     0.007 C 
ENDBRANCH  34  35
ENDBRANCH  33  34
ENDBRANCH  32  33
ENDBRANCH   8  27
TORSDOF 8
ENDMDL
MODEL 20
REMARK VINA RESULT:   -14.224      2.752      5.574
REMARK INTER + INTRA:         -21.795
REMARK INTER:                 -18.997
REMARK INTRA:                  -2.798
REMARK CONF_INDEPENDENT:        4.773
REMARK UNBOUND:                -2.798
REMARK SMILES C=CCOc1ccc(-c2ccc3ccc4c(-c5ccc(OCC=C)cc5)ccc5ccc2c3c54)cc1
REMARK SMILES IDX 9 1 10 2 11 3 12 4 13 5 14 6 15 7 16 8 27 9 28 10 29 11
REMARK SMILES IDX 30 12 31 13 32 14 33 15 34 16 8 17 5 18 6 19 36 20 7 21
REMARK SMILES IDX 35 22 4 23 3 24 2 25 1 26 17 27 18 28 26 29 19 30 25 31
REMARK SMILES IDX 20 32 21 33 22 34 23 35 24 36
REMARK H PARENT
REMARK Flexibility Score: inf
ROOT
ATOM      1  C   UNL     1       1.080   5.605  -1.364  1.00  0.00    -0.010 A 
ATOM      2  C   UNL     1       0.518   6.828  -1.765  1.00  0.00     0.010 A 
ATOM      3  C   UNL     1       1.204   7.684  -2.621  1.00  0.00     0.009 A 
ATOM      4  C   UNL     1       2.472   7.341  -3.100  1.00  0.00    -0.017 A 
ATOM      5  C   UNL     1       3.158   8.202  -3.959  1.00  0.00     0.009 A 
ATOM      6  C   UNL     1       4.423   7.867  -4.441  1.00  0.00     0.010 A 
ATOM      7  C   UNL     1       5.056   6.659  -4.084  1.00  0.00    -0.009 A 
ATOM      8  C   UNL     1       6.346   6.293  -4.561  1.00  0.00    -0.010 A 
ATOM      9  C   UNL     1       6.907   5.071  -4.160  1.00  0.00     0.010 A 
ATOM     10  C   UNL     1       6.221   4.213  -3.305  1.00  0.00     0.009 A 
ATOM     11  C   UNL     1       4.953   4.556  -2.826  1.00  0.00    -0.017 A 
ATOM     12  C   UNL     1       4.267   3.695  -1.968  1.00  0.00     0.009 A 
ATOM     13  C   UNL     1       3.001   4.030  -1.486  1.00  0.00     0.010 A 
ATOM     14  C   UNL     1       2.369   5.239  -1.841  1.00  0.00    -0.009 A 
ATOM     15  C   UNL     1       3.066   6.118  -2.715  1.00  0.00    -0.002 A 
ATOM     16  C   UNL     1       4.359   5.781  -3.211  1.00  0.00    -0.002 A 
ENDROOT
BRANCH   1  17
ATOM     17  C   UNL     1       0.297   4.750  -0.457  1.00  0.00    -0.018 A 
ATOM     18  C   UNL     1      -1.201   3.113   1.288  1.00  0.00     0.119 A 
ATOM     19  C   UNL     1      -0.061   3.770   1.748  1.00  0.00     0.047 A 
ATOM     20  C   UNL     1      -1.598   3.288  -0.039  1.00  0.00     0.047 A 
ATOM     21  C   UNL     1       0.683   4.581   0.880  1.00  0.00     0.012 A 
ATOM     22  C   UNL     1      -0.857   4.096  -0.906  1.00  0.00     0.012 A 
BRANCH  18  23
ATOM     23  O   UNL     1      -2.019   2.303   2.023  1.00  0.00    -0.490 OA
BRANCH  23  24
ATOM     24  C   UNL     1      -1.684   0.921   2.147  1.00  0.00     0.257 C 
BRANCH  24  25
ATOM     25  C   UNL     1      -0.816   0.706   3.352  1.00  0.00     0.006 C 
ATOM     26  C   UNL     1       0.461   1.097   3.455  1.00  0.00     0.007 C 
ENDBRANCH  24  25
ENDBRANCH  23  24
ENDBRANCH  18  23
ENDBRANCH   1  17
BRANCH   8  27
ATOM     27  C   UNL     1       7.129   7.149  -5.467  1.00  0.00    -0.018 A 
ATOM     28  C   UNL     1       8.483   7.408  -5.216  1.00  0.00     0.012 A 
ATOM     29  C   UNL     1       6.534   7.735  -6.593  1.00  0.00     0.012 A 
ATOM     30  C   UNL     1       9.219   8.225  -6.079  1.00  0.00     0.047 A 
ATOM     31  C   UNL     1       7.274   8.552  -7.456  1.00  0.00     0.047 A 
ATOM     32  C   UNL     1       8.624   8.794  -7.207  1.00  0.00     0.119 A 
BRANCH  32  33
ATOM     33  O   UNL     1       9.457   9.573  -7.958  1.00  0.00    -0.490 OA
BRANCH  33  34
ATOM     34  C   UNL     1       9.604  10.951  -7.613  1.00  0.00     0.257 C 
BRANCH  34  35
ATOM     35  C   UNL     1       8.493  11.376  -6.699  1.00  0.00     0.006 C 
ATOM     36  C   UNL     1       8.662  11.870  -5.466  1.00  0.00     0.007 C 
ENDBRANCH  34  35
ENDBRANCH  33  34
ENDBRANCH  32  33
ENDBRANCH   8  27
TORSDOF 8
REMARK SMILES C=CCOc1ccc(-c2ccc3ccc4c(-c5ccc(OCC=C)cc5)ccc5ccc2c3c54)cc1
REMARK SMILES IDX 9 1 10 2 11 3 12 4 13 5 14 6 15 7 16 8 27 9 28 10 29 11
REMARK SMILES IDX 30 12 31 13 32 14 33 15 34 16 8 17 5 18 6 19 36 20 7 21
REMARK SMILES IDX 35 22 4 23 3 24 2 25 1 26 17 27 18 28 26 29 19 30 25 31
REMARK SMILES IDX 20 32 21 33 22 34 23 35 24 36
REMARK H PARENT
REMARK Flexibility Score: inf
ROOT
ATOM      1  C   UNL     1       2.499   8.534   0.719  1.00  0.00    -0.010 A 
ATOM      2  C   UNL     1       2.227   7.416   1.524  1.00  0.00     0.010 A 
ATOM      3  C   UNL     1       3.126   6.357   1.604  1.00  0.00     0.009 A 
ATOM      4  C   UNL     1       4.322   6.387   0.881  1.00  0.00    -0.017 A 
ATOM      5  C   UNL     1       5.222   5.322   0.964  1.00  0.00     0.009 A 
ATOM      6  C   UNL     1       6.418   5.345   0.245  1.00  0.00     0.010 A 
ATOM      7  C   UNL     1       6.763   6.430  -0.585  1.00  0.00    -0.009 A 
ATOM      8  C   UNL     1       7.976   6.478  -1.328  1.00  0.00    -0.010 A 
ATOM      9  C   UNL     1       8.248   7.596  -2.131  1.00  0.00     0.010 A 
ATOM     10  C   UNL     1       7.350   8.656  -2.212  1.00  0.00     0.009 A 
ATOM     11  C   UNL     1       6.153   8.627  -1.489  1.00  0.00    -0.017 A 
ATOM     12  C   UNL     1       5.254   9.692  -1.571  1.00  0.00     0.009 A 
ATOM     13  C   UNL     1       4.058   9.669  -0.852  1.00  0.00     0.010 A 
ATOM     14  C   UNL     1       3.711   8.583  -0.024  1.00  0.00    -0.009 A 
ATOM     15  C   UNL     1       4.626   7.498   0.061  1.00  0.00    -0.002 A 
ATOM     16  C   UNL     1       5.849   7.515  -0.670  1.00  0.00    -0.002 A 
ENDROOT
BRANCH   1  17
ATOM     17  C   UNL     1       1.503   9.618   0.683  1.00  0.00    -0.018 A 
ATOM     18  C   UNL     1      -0.411  11.691   0.608  1.00  0.00     0.119 A 
ATOM     19  C   UNL     1      -0.209  10.882  -0.509  1.00  0.00     0.047 A 
ATOM     20  C   UNL     1       0.334  11.452   1.764  1.00  0.00     0.047 A 
ATOM     21  C   UNL     1       0.742   9.854  -0.471  1.00  0.00     0.012 A 
ATOM     22  C   UNL     1       1.284  10.428   1.804  1.00  0.00     0.012 A 
BRANCH  18  23
ATOM     23  O   UNL     1      -1.306  12.718   0.710  1.00  0.00    -0.490 OA
BRANCH  23  24
ATOM     24  C   UNL     1      -1.527  13.552  -0.428  1.00  0.00     0.257 C 
BRANCH  24  25
ATOM     25  C   UNL     1      -2.837  13.208  -1.073  1.00  0.00     0.006 C 
ATOM     26  C   UNL     1      -2.970  12.512  -2.211  1.00  0.00     0.007 C 
ENDBRANCH  24  25
ENDBRANCH  23  24
ENDBRANCH  18  23
ENDBRANCH   1  17
BRANCH   8  27
ATOM     27  C   UNL     1       8.972   5.394  -1.293  1.00  0.00    -0.018 A 
ATOM     28  C   UNL     1       9.421   4.873  -0.073  1.00  0.00     0.012 A 
ATOM     29  C   UNL     1       9.501   4.868  -2.480  1.00  0.00     0.012 A 
ATOM     30  C   UNL     1      10.369   3.846  -0.047  1.00  0.00     0.047 A 
ATOM     31  C   UNL     1      10.450   3.839  -2.451  1.00  0.00     0.047 A 
ATOM     32  C   UNL     1      10.882   3.318  -1.234  1.00  0.00     0.119 A 
BRANCH  32  33
ATOM     33  O   UNL     1      11.804   2.324  -1.061  1.00  0.00    -0.490 OA
BRANCH  33  34
ATOM     34  C   UNL     1      11.372   0.966  -1.144  1.00  0.00     0.257 C 
BRANCH  34  35
ATOM     35  C   UNL     1       9.880   0.889  -1.011  1.00  0.00     0.006 C 
ATOM     36  C   UNL     1       9.039   0.546  -1.996  1.00  0.00     0.007 C 
ENDBRANCH  34  35
ENDBRANCH  33  34
ENDBRANCH  32  33
ENDBRANCH   8  27
TORSDOF 8
ENDMDL
