@<TRIPOS>MOLECULE
UNL
   68    73     1     0     0
SMALL
bcc


@<TRIPOS>ATOM
      1 C1          -7.3420     4.6690     3.5050 c3         1 UNL      -0.128100
      2 C2          -6.6820     3.6620     4.4340 c3         1 UNL       0.116800
      3 N1          -5.2330     3.3050     4.0450 n4         1 UNL      -0.608800
      4 C3          -4.7110     2.3370     5.1130 c3         1 UNL       0.088600
      5 C4          -4.3480     4.5450     4.0630 c3         1 UNL       0.088600
      6 C5          -5.2080     2.6250     2.6550 c3         1 UNL       0.184100
      7 C6          -3.8890     2.0410     2.2090 ca         1 UNL      -0.190300
      8 C7          -3.5830     0.6950     2.4600 ca         1 UNL      -0.104500
      9 C8          -2.3570     0.1570     2.0610 ca         1 UNL      -0.121000
     10 C9          -1.4120     0.9450     1.3900 cp         1 UNL       0.040000
     11 C10         -0.1220     0.3760     0.9690 cp         1 UNL      -0.089000
     12 C11          0.9920     0.5780     1.8000 ca         1 UNL      -0.104000
     13 C12          2.2380     0.0570     1.4670 ca         1 UNL      -0.125000
     14 C13          2.4060    -0.6840     0.2930 ca         1 UNL       0.000000
     15 C14          3.6570    -1.2080    -0.0360 ca         1 UNL      -0.137000
     16 C15          3.8320    -1.9510    -1.2040 ca         1 UNL      -0.087000
     17 C16          2.7650    -2.2010    -2.0900 ca         1 UNL      -0.035000
     18 C17          2.9160    -2.9580    -3.2860 cp         1 UNL       0.014000
     19 C18          4.1990    -3.5540    -3.6930 cp         1 UNL      -0.101000
     20 C19          5.0330    -2.9020    -4.6120 ca         1 UNL      -0.080500
     21 C20          6.2520    -3.4680    -5.0060 ca         1 UNL      -0.182000
     22 C21          6.6540    -4.6970    -4.4860 ca         1 UNL       0.139100
     23 O1           7.8150    -5.3560    -4.7820 os         1 UNL      -0.321900
     24 C22          8.6600    -4.7620    -5.7600 c3         1 UNL       0.110700
     25 C23          5.8290    -5.3520    -3.5700 ca         1 UNL      -0.182000
     26 C24          4.6110    -4.7900    -3.1780 ca         1 UNL      -0.080500
     27 C25          1.8050    -3.1550    -4.1210 ca         1 UNL      -0.122000
     28 C26          0.5600    -2.6230    -3.7950 ca         1 UNL      -0.096000
     29 C27          0.3930    -1.8800    -2.6230 ca         1 UNL      -0.054000
     30 C28         -0.8570    -1.3490    -2.2990 ca         1 UNL      -0.081000
     31 C29         -1.0330    -0.6090    -1.1290 ca         1 UNL      -0.152000
     32 C30          0.0310    -0.3710    -0.2340 ca         1 UNL       0.011000
     33 C31          1.3050    -0.9050    -0.5670 ca         1 UNL      -0.024000
     34 C32          1.4920    -1.6630    -1.7600 ca         1 UNL      -0.009000
     35 C33         -1.7230     2.2860     1.1270 ca         1 UNL      -0.121000
     36 C34         -2.9480     2.8270     1.5270 ca         1 UNL      -0.104500
     37 H1          -7.4340     4.2920     2.4820 hc         1 UNL       0.075033
     38 H2          -6.8070     5.6220     3.4820 hc         1 UNL       0.075033
     39 H3          -8.3560     4.8790     3.8620 hc         1 UNL       0.075033
     40 H4          -6.6520     4.0650     5.4530 hx         1 UNL       0.095200
     41 H5          -7.2520     2.7260     4.4490 hx         1 UNL       0.095200
     42 H6          -3.6520     2.1350     4.9320 hx         1 UNL       0.099533
     43 H7          -5.3010     1.4170     5.0630 hx         1 UNL       0.099533
     44 H8          -4.8270     2.8110     6.0930 hx         1 UNL       0.099533
     45 H9          -4.6060     5.1790     3.2100 hx         1 UNL       0.099533
     46 H10         -3.3010     4.2370     3.9990 hx         1 UNL       0.099533
     47 H11         -4.5180     5.0770     5.0040 hx         1 UNL       0.099533
     48 H12         -5.9730     1.8380     2.6750 hx         1 UNL       0.098200
     49 H13         -5.5330     3.3720     1.9230 hx         1 UNL       0.098200
     50 H14         -4.2940     0.0400     2.9620 ha         1 UNL       0.133500
     51 H15         -2.1370    -0.8910     2.2650 ha         1 UNL       0.163500
     52 H16          0.8910     1.1460     2.7230 ha         1 UNL       0.129000
     53 H17          3.0790     0.2320     2.1350 ha         1 UNL       0.144000
     54 H18          4.5160    -1.0480     0.6120 ha         1 UNL       0.142000
     55 H19          4.8290    -2.3350    -1.4140 ha         1 UNL       0.153000
     56 H20          4.7360    -1.9410    -5.0280 ha         1 UNL       0.139000
     57 H21          6.8610    -2.9200    -5.7180 ha         1 UNL       0.149500
     58 H22          9.0330    -3.7900    -5.4200 h1         1 UNL       0.048700
     59 H23          8.1490    -4.6750    -6.7240 h1         1 UNL       0.048700
     60 H24          9.5230    -5.4200    -5.8990 h1         1 UNL       0.048700
     61 H25          6.1350    -6.3120    -3.1590 ha         1 UNL       0.149500
     62 H26          3.9840    -5.3230    -2.4660 ha         1 UNL       0.139000
     63 H27          1.9090    -3.7340    -5.0380 ha         1 UNL       0.147000
     64 H28         -0.2760    -2.7980    -4.4680 ha         1 UNL       0.140000
     65 H29         -1.7110    -1.5040    -2.9540 ha         1 UNL       0.138000
     66 H30         -2.0260    -0.2150    -0.9290 ha         1 UNL       0.129000
     67 H31         -1.0080     2.9110     0.5940 ha         1 UNL       0.163500
     68 H32         -3.1550     3.8680     1.2840 ha         1 UNL       0.133500
@<TRIPOS>BOND
     1     1     2 1   
     2     1    37 1   
     3     1    38 1   
     4     1    39 1   
     5     2     3 1   
     6     2    40 1   
     7     2    41 1   
     8     3     4 1   
     9     3     5 1   
    10     3     6 1   
    11     4    42 1   
    12     4    43 1   
    13     4    44 1   
    14     5    45 1   
    15     5    46 1   
    16     5    47 1   
    17     6     7 1   
    18     6    48 1   
    19     6    49 1   
    20     7     8 ar  
    21     7    36 ar  
    22     8     9 ar  
    23     8    50 1   
    24     9    10 ar  
    25     9    51 1   
    26    10    11 1   
    27    10    35 ar  
    28    11    12 ar  
    29    11    32 ar  
    30    12    13 ar  
    31    12    52 1   
    32    13    14 ar  
    33    13    53 1   
    34    14    15 ar  
    35    14    33 ar  
    36    15    16 ar  
    37    15    54 1   
    38    16    17 ar  
    39    16    55 1   
    40    17    18 ar  
    41    17    34 ar  
    42    18    19 1   
    43    18    27 ar  
    44    19    20 ar  
    45    19    26 ar  
    46    20    21 ar  
    47    20    56 1   
    48    21    22 ar  
    49    21    57 1   
    50    22    23 1   
    51    22    25 ar  
    52    23    24 1   
    53    24    58 1   
    54    24    59 1   
    55    24    60 1   
    56    25    26 ar  
    57    25    61 1   
    58    26    62 1   
    59    27    28 ar  
    60    27    63 1   
    61    28    29 ar  
    62    28    64 1   
    63    29    30 ar  
    64    29    34 ar  
    65    30    31 ar  
    66    30    65 1   
    67    31    32 ar  
    68    31    66 1   
    69    32    33 ar  
    70    33    34 ar  
    71    35    36 ar  
    72    35    67 1   
    73    36    68 1   
@<TRIPOS>SUBSTRUCTURE
     1 UNL         1 TEMP              0 ****  ****    0 ROOT
