@<TRIPOS>MOLECULE
UNL
   68    73     1     0     0
SMALL
bcc


@<TRIPOS>ATOM
      1 C1          -3.1950     4.9940    -7.4010 c3         1 UNL      -0.128100
      2 C2          -4.2490     4.3800    -6.4930 c3         1 UNL       0.116800
      3 N1          -3.7350     3.2010    -5.6430 n4         1 UNL      -0.608800
      4 C3          -3.2690     2.0580    -6.5380 c3         1 UNL       0.088600
      5 C4          -4.9200     2.6970    -4.8140 c3         1 UNL       0.088600
      6 C5          -2.5940     3.6730    -4.7100 c3         1 UNL       0.184100
      7 C6          -2.0910     2.6750    -3.6950 ca         1 UNL      -0.190300
      8 C7          -2.6270     2.6360    -2.3980 ca         1 UNL      -0.104500
      9 C8          -2.1750     1.6940    -1.4690 ca         1 UNL      -0.121000
     10 C9          -1.1730     0.7760    -1.8080 cp         1 UNL       0.040000
     11 C10         -0.6950    -0.2230    -0.8390 cp         1 UNL      -0.089000
     12 C11         -1.2440    -1.5140    -0.9010 ca         1 UNL      -0.104000
     13 C12         -0.8200    -2.5170    -0.0340 ca         1 UNL      -0.125000
     14 C13          0.1660    -2.2560     0.9200 ca         1 UNL       0.000000
     15 C14          0.6000    -3.2680     1.7770 ca         1 UNL      -0.137000
     16 C15          1.5850    -3.0180     2.7310 ca         1 UNL      -0.087000
     17 C16          2.1730    -1.7450     2.8740 ca         1 UNL      -0.035000
     18 C17          3.1750    -1.4620     3.8460 cp         1 UNL       0.014000
     19 C18          3.6710    -2.4760     4.7900 cp         1 UNL      -0.101000
     20 C19          4.8810    -3.1440     4.5550 ca         1 UNL      -0.080500
     21 C20          5.3520    -4.1180     5.4440 ca         1 UNL      -0.182000
     22 C21          4.6170    -4.4390     6.5830 ca         1 UNL       0.139100
     23 O1           4.9500    -5.3810     7.5160 os         1 UNL      -0.321900
     24 C22          6.2500    -5.9460     7.4210 c3         1 UNL       0.110700
     25 C23          3.4120    -3.7760     6.8270 ca         1 UNL      -0.182000
     26 C24          2.9450    -2.8000     5.9440 ca         1 UNL      -0.080500
     27 C25          3.7150    -0.1680     3.9190 ca         1 UNL      -0.122000
     28 C26          3.2870     0.8380     3.0570 ca         1 UNL      -0.096000
     29 C27          2.3050     0.5780     2.0960 ca         1 UNL      -0.054000
     30 C28          1.8820     1.5860     1.2280 ca         1 UNL      -0.081000
     31 C29          0.9050     1.3330     0.2650 ca         1 UNL      -0.152000
     32 C30          0.3040     0.0650     0.1340 ca         1 UNL       0.011000
     33 C31          0.7340    -0.9640     1.0160 ca         1 UNL      -0.024000
     34 C32          1.7370    -0.7140     1.9980 ca         1 UNL      -0.009000
     35 C33         -0.6270     0.8270    -3.0980 ca         1 UNL      -0.121000
     36 C34         -1.0770     1.7660    -4.0300 ca         1 UNL      -0.104500
     37 H1          -2.3860     5.4630    -6.8340 hc         1 UNL       0.075033
     38 H2          -3.6590     5.7800    -8.0060 hc         1 UNL       0.075033
     39 H3          -2.7650     4.2660    -8.0930 hc         1 UNL       0.075033
     40 H4          -4.6370     5.1340    -5.7980 hx         1 UNL       0.095200
     41 H5          -5.0820     4.0010    -7.0970 hx         1 UNL       0.095200
     42 H6          -3.1290     1.1620    -5.9270 hx         1 UNL       0.099533
     43 H7          -2.3300     2.3420    -7.0160 hx         1 UNL       0.099533
     44 H8          -4.0410     1.8710    -7.2920 hx         1 UNL       0.099533
     45 H9          -5.7370     2.4510    -5.5010 hx         1 UNL       0.099533
     46 H10         -5.2230     3.4880    -4.1230 hx         1 UNL       0.099533
     47 H11         -4.6220     1.7960    -4.2710 hx         1 UNL       0.099533
     48 H12         -2.9500     4.5780    -4.2030 hx         1 UNL       0.098200
     49 H13         -1.7580     3.9680    -5.3520 hx         1 UNL       0.098200
     50 H14         -3.3940     3.3410    -2.0860 ha         1 UNL       0.133500
     51 H15         -2.6020     1.6800    -0.4660 ha         1 UNL       0.163500
     52 H16         -2.0090    -1.7480    -1.6380 ha         1 UNL       0.129000
     53 H17         -1.2640    -3.5070    -0.1140 ha         1 UNL       0.144000
     54 H18          0.1790    -4.2700     1.7140 ha         1 UNL       0.142000
     55 H19          1.8920    -3.8450     3.3700 ha         1 UNL       0.153000
     56 H20          5.4620    -2.9170     3.6630 ha         1 UNL       0.139000
     57 H21          6.2870    -4.6150     5.2070 ha         1 UNL       0.149500
     58 H22          6.3680    -6.5240     6.5000 h1         1 UNL       0.048700
     59 H23          7.0200    -5.1720     7.5020 h1         1 UNL       0.048700
     60 H24          6.3790    -6.6320     8.2640 h1         1 UNL       0.048700
     61 H25          2.8340    -4.0210     7.7130 ha         1 UNL       0.149500
     62 H26          2.0030    -2.2990     6.1540 ha         1 UNL       0.139000
     63 H27          4.4790     0.0610     4.6600 ha         1 UNL       0.147000
     64 H28          3.7300     1.8270     3.1460 ha         1 UNL       0.140000
     65 H29          2.3120     2.5840     1.2880 ha         1 UNL       0.138000
     66 H30          0.6190     2.1540    -0.3880 ha         1 UNL       0.129000
     67 H31          0.1630     0.1290    -3.3760 ha         1 UNL       0.163500
     68 H32         -0.6120     1.7770    -5.0140 ha         1 UNL       0.133500
@<TRIPOS>BOND
     1     1     2 1   
     2     1    37 1   
     3     1    38 1   
     4     1    39 1   
     5     2     3 1   
     6     2    40 1   
     7     2    41 1   
     8     3     4 1   
     9     3     5 1   
    10     3     6 1   
    11     4    42 1   
    12     4    43 1   
    13     4    44 1   
    14     5    45 1   
    15     5    46 1   
    16     5    47 1   
    17     6     7 1   
    18     6    48 1   
    19     6    49 1   
    20     7     8 ar  
    21     7    36 ar  
    22     8     9 ar  
    23     8    50 1   
    24     9    10 ar  
    25     9    51 1   
    26    10    11 1   
    27    10    35 ar  
    28    11    12 ar  
    29    11    32 ar  
    30    12    13 ar  
    31    12    52 1   
    32    13    14 ar  
    33    13    53 1   
    34    14    15 ar  
    35    14    33 ar  
    36    15    16 ar  
    37    15    54 1   
    38    16    17 ar  
    39    16    55 1   
    40    17    18 ar  
    41    17    34 ar  
    42    18    19 1   
    43    18    27 ar  
    44    19    20 ar  
    45    19    26 ar  
    46    20    21 ar  
    47    20    56 1   
    48    21    22 ar  
    49    21    57 1   
    50    22    23 1   
    51    22    25 ar  
    52    23    24 1   
    53    24    58 1   
    54    24    59 1   
    55    24    60 1   
    56    25    26 ar  
    57    25    61 1   
    58    26    62 1   
    59    27    28 ar  
    60    27    63 1   
    61    28    29 ar  
    62    28    64 1   
    63    29    30 ar  
    64    29    34 ar  
    65    30    31 ar  
    66    30    65 1   
    67    31    32 ar  
    68    31    66 1   
    69    32    33 ar  
    70    33    34 ar  
    71    35    36 ar  
    72    35    67 1   
    73    36    68 1   
@<TRIPOS>SUBSTRUCTURE
     1 UNL         1 TEMP              0 ****  ****    0 ROOT
