@<TRIPOS>MOLECULE
UNL
   68    73     1     0     0
SMALL
bcc


@<TRIPOS>ATOM
      1 C1           6.0640     2.1740     3.1060 c3         1 UNL      -0.128100
      2 C2           5.8220     1.4170     1.8080 c3         1 UNL       0.113800
      3 N1           6.3940    -0.0110     1.8040 n4         1 UNL      -0.609800
      4 C3           7.8940    -0.0030     2.0980 c3         1 UNL       0.088600
      5 C4           5.6940    -0.8810     2.8420 c3         1 UNL       0.088600
      6 C5           6.2180    -0.6340     0.3880 c3         1 UNL       0.187100
      7 C6           4.8070    -0.7450    -0.1360 ca         1 UNL      -0.190300
      8 C7           4.0190    -1.8710     0.1500 ca         1 UNL      -0.104000
      9 C8           2.7060    -1.9600    -0.3220 ca         1 UNL      -0.120000
     10 C9           2.1500    -0.9330    -1.0960 cp         1 UNL       0.040000
     11 C10          0.7690    -1.0330    -1.5980 cp         1 UNL      -0.088000
     12 C11          0.5400    -1.8160    -2.7410 ca         1 UNL      -0.101000
     13 C12         -0.7370    -1.9410    -3.2790 ca         1 UNL      -0.123000
     14 C13         -1.8210    -1.2850    -2.6910 ca         1 UNL      -0.001000
     15 C14         -3.1000    -1.4090    -3.2380 ca         1 UNL      -0.135000
     16 C15         -4.1870    -0.7540    -2.6590 ca         1 UNL      -0.088000
     17 C16         -4.0430     0.0510    -1.5100 ca         1 UNL      -0.034000
     18 C17         -5.1340     0.7350    -0.9030 cp         1 UNL       0.015000
     19 C18         -6.5040     0.6820    -1.4400 cp         1 UNL      -0.102000
     20 C19         -6.8940     1.5230    -2.4910 ca         1 UNL      -0.080000
     21 C20         -8.1980     1.4760    -2.9910 ca         1 UNL      -0.182000
     22 C21         -9.1380     0.5970    -2.4500 ca         1 UNL       0.140100
     23 O1         -10.3760     0.6570    -3.0290 os         1 UNL      -0.321900
     24 C22        -11.3890    -0.1740    -2.4730 c3         1 UNL       0.110700
     25 C23         -8.7600    -0.2440    -1.4040 ca         1 UNL      -0.182000
     26 C24         -7.4530    -0.2000    -0.9020 ca         1 UNL      -0.080000
     27 C25         -4.9090     1.5050     0.2490 ca         1 UNL      -0.122000
     28 C26         -3.6360     1.6130     0.8000 ca         1 UNL      -0.098000
     29 C27         -2.5510     0.9570     0.2130 ca         1 UNL      -0.055000
     30 C28         -1.2740     1.0720     0.7660 ca         1 UNL      -0.083000
     31 C29         -0.1850     0.4250     0.1820 ca         1 UNL      -0.152000
     32 C30         -0.3250    -0.3650    -0.9780 ca         1 UNL       0.008000
     33 C31         -1.6270    -0.4920    -1.5360 ca         1 UNL      -0.023000
     34 C32         -2.7430     0.1710    -0.9470 ca         1 UNL      -0.008000
     35 C33          2.9450     0.1800    -1.4020 ca         1 UNL      -0.120000
     36 C34          4.2570     0.2730    -0.9300 ca         1 UNL      -0.104000
     37 H1           5.5730     3.1530     3.0520 hc         1 UNL       0.073367
     38 H2           7.1280     2.3620     3.2820 hc         1 UNL       0.073367
     39 H3           5.6480     1.6530     3.9730 hc         1 UNL       0.073367
     40 H4           4.7440     1.3400     1.6340 hx         1 UNL       0.100700
     41 H5           6.2820     1.9540     0.9700 hx         1 UNL       0.100700
     42 H6           8.2750    -1.0230     1.9820 hx         1 UNL       0.098533
     43 H7           8.0550     0.3300     3.1250 hx         1 UNL       0.098533
     44 H8           8.3840     0.6690     1.3900 hx         1 UNL       0.098533
     45 H9           6.0090    -1.9190     2.6950 hx         1 UNL       0.098533
     46 H10          4.6120    -0.7800     2.7240 hx         1 UNL       0.098533
     47 H11          5.9930    -0.5510     3.8410 hx         1 UNL       0.098533
     48 H12          6.8230    -0.0260    -0.2970 hx         1 UNL       0.097200
     49 H13          6.6800    -1.6290     0.4190 hx         1 UNL       0.097200
     50 H14          4.4130    -2.7000     0.7340 ha         1 UNL       0.133500
     51 H15          2.1100    -2.8410    -0.0870 ha         1 UNL       0.163500
     52 H16          1.3660    -2.3320    -3.2280 ha         1 UNL       0.135000
     53 H17         -0.8770    -2.5550    -4.1670 ha         1 UNL       0.146000
     54 H18         -3.2710    -2.0170    -4.1240 ha         1 UNL       0.143000
     55 H19         -5.1630    -0.8860    -3.1240 ha         1 UNL       0.154000
     56 H20         -6.1840     2.2220    -2.9280 ha         1 UNL       0.139500
     57 H21         -8.4850     2.1340    -3.8080 ha         1 UNL       0.150000
     58 H22        -11.5730     0.0760    -1.4220 h1         1 UNL       0.048700
     59 H23        -12.3140     0.0120    -3.0270 h1         1 UNL       0.048700
     60 H24        -11.1370    -1.2340    -2.5900 h1         1 UNL       0.048700
     61 H25         -9.4550    -0.9470    -0.9550 ha         1 UNL       0.150000
     62 H26         -7.1760    -0.8640    -0.0850 ha         1 UNL       0.139500
     63 H27         -5.7370     2.0350     0.7190 ha         1 UNL       0.147000
     64 H28         -3.5040     2.2220     1.6910 ha         1 UNL       0.138000
     65 H29         -1.1150     1.6690     1.6610 ha         1 UNL       0.134000
     66 H30          0.7860     0.5470     0.6550 ha         1 UNL       0.122000
     67 H31          2.5390     0.9800    -2.0220 ha         1 UNL       0.163500
     68 H32          4.8420     1.1490    -1.2050 ha         1 UNL       0.133500
@<TRIPOS>BOND
     1     1     2 1   
     2     1    37 1   
     3     1    38 1   
     4     1    39 1   
     5     2     3 1   
     6     2    40 1   
     7     2    41 1   
     8     3     4 1   
     9     3     5 1   
    10     3     6 1   
    11     4    42 1   
    12     4    43 1   
    13     4    44 1   
    14     5    45 1   
    15     5    46 1   
    16     5    47 1   
    17     6     7 1   
    18     6    48 1   
    19     6    49 1   
    20     7     8 ar  
    21     7    36 ar  
    22     8     9 ar  
    23     8    50 1   
    24     9    10 ar  
    25     9    51 1   
    26    10    11 1   
    27    10    35 ar  
    28    11    12 ar  
    29    11    32 ar  
    30    12    13 ar  
    31    12    52 1   
    32    13    14 ar  
    33    13    53 1   
    34    14    15 ar  
    35    14    33 ar  
    36    15    16 ar  
    37    15    54 1   
    38    16    17 ar  
    39    16    55 1   
    40    17    18 ar  
    41    17    34 ar  
    42    18    19 1   
    43    18    27 ar  
    44    19    20 ar  
    45    19    26 ar  
    46    20    21 ar  
    47    20    56 1   
    48    21    22 ar  
    49    21    57 1   
    50    22    23 1   
    51    22    25 ar  
    52    23    24 1   
    53    24    58 1   
    54    24    59 1   
    55    24    60 1   
    56    25    26 ar  
    57    25    61 1   
    58    26    62 1   
    59    27    28 ar  
    60    27    63 1   
    61    28    29 ar  
    62    28    64 1   
    63    29    30 ar  
    64    29    34 ar  
    65    30    31 ar  
    66    30    65 1   
    67    31    32 ar  
    68    31    66 1   
    69    32    33 ar  
    70    33    34 ar  
    71    35    36 ar  
    72    35    67 1   
    73    36    68 1   
@<TRIPOS>SUBSTRUCTURE
     1 UNL         1 TEMP              0 ****  ****    0 ROOT
