@<TRIPOS>MOLECULE
UNL
   68    73     1     0     0
SMALL
bcc


@<TRIPOS>ATOM
      1 C1           1.9780     2.6760     8.9260 c3         1 UNL      -0.128100
      2 C2           2.4200     1.2950     8.4660 c3         1 UNL       0.116800
      3 N1           2.0450     0.9680     7.0040 n4         1 UNL      -0.608800
      4 C3           2.5110    -0.4670     6.7360 c3         1 UNL       0.088600
      5 C4           0.5320     1.0150     6.8110 c3         1 UNL       0.088600
      6 C5           2.7600     1.9410     6.0390 c3         1 UNL       0.184100
      7 C6           2.5180     1.7370     4.5620 ca         1 UNL      -0.190300
      8 C7           3.3320     0.8800     3.8060 ca         1 UNL      -0.105000
      9 C8           3.0960     0.6950     2.4400 ca         1 UNL      -0.120000
     10 C9           2.0510     1.3690     1.7920 cp         1 UNL       0.039000
     11 C10          1.8270     1.2030     0.3450 cp         1 UNL      -0.088000
     12 C11          2.7260     1.8350    -0.5310 ca         1 UNL      -0.101000
     13 C12          2.5660     1.7460    -1.9110 ca         1 UNL      -0.123000
     14 C13          1.4990     1.0270    -2.4540 ca         1 UNL      -0.001000
     15 C14          1.3400     0.9480    -3.8380 ca         1 UNL      -0.135000
     16 C15          0.2740     0.2390    -4.3890 ca         1 UNL      -0.089000
     17 C16         -0.6780    -0.4180    -3.5840 ca         1 UNL      -0.034000
     18 C17         -1.7800    -1.1390    -4.1250 cp         1 UNL       0.015000
     19 C18         -2.0260    -1.2370    -5.5730 cp         1 UNL      -0.102000
     20 C19         -1.6620    -2.3880    -6.2880 ca         1 UNL      -0.080000
     21 C20         -1.8670    -2.4730    -7.6700 ca         1 UNL      -0.182000
     22 C21         -2.4400    -1.4050    -8.3610 ca         1 UNL       0.140100
     23 O1          -2.6780    -1.3510    -9.7060 os         1 UNL      -0.321900
     24 C22         -2.2210    -2.4510   -10.4850 c3         1 UNL       0.110700
     25 C23         -2.8230    -0.2630    -7.6540 ca         1 UNL      -0.182000
     26 C24         -2.6200    -0.1780    -6.2740 ca         1 UNL      -0.080000
     27 C25         -2.6740    -1.7810    -3.2550 ca         1 UNL      -0.122000
     28 C26         -2.5010    -1.7180    -1.8750 ca         1 UNL      -0.098000
     29 C27         -1.4300    -1.0060    -1.3260 ca         1 UNL      -0.055000
     30 C28         -1.2600    -0.9410     0.0590 ca         1 UNL      -0.083000
     31 C29         -0.1980    -0.2270     0.6140 ca         1 UNL      -0.152000
     32 C30          0.7390     0.4550    -0.1910 ca         1 UNL       0.008000
     33 C31          0.5760     0.3770    -1.6010 ca         1 UNL      -0.023000
     34 C32         -0.5100    -0.3490    -2.1740 ca         1 UNL      -0.008000
     35 C33          1.2500     2.2380     2.5460 ca         1 UNL      -0.120000
     36 C34          1.4770     2.4190     3.9130 ca         1 UNL      -0.105000
     37 H1           2.5030     3.4760     8.3960 hc         1 UNL       0.075033
     38 H2           2.2100     2.7990     9.9910 hc         1 UNL       0.075033
     39 H3           0.9010     2.8290     8.8140 hc         1 UNL       0.075033
     40 H4           3.5090     1.1950     8.5510 hx         1 UNL       0.095200
     41 H5           1.9510     0.5300     9.0960 hx         1 UNL       0.095200
     42 H6           2.0590    -1.1220     7.4880 hx         1 UNL       0.099367
     43 H7           3.6020    -0.4960     6.8120 hx         1 UNL       0.099367
     44 H8           2.1820    -0.7780     5.7410 hx         1 UNL       0.099367
     45 H9           0.0640     0.4480     7.6210 hx         1 UNL       0.099367
     46 H10          0.2800     0.5580     5.8490 hx         1 UNL       0.099367
     47 H11          0.2020     2.0580     6.8300 hx         1 UNL       0.099367
     48 H12          3.8330     1.8730     6.2570 hx         1 UNL       0.098200
     49 H13          2.4400     2.9540     6.3060 hx         1 UNL       0.098200
     50 H14          4.1700     0.3550     4.2600 ha         1 UNL       0.133500
     51 H15          3.7400     0.0260     1.8690 ha         1 UNL       0.163500
     52 H16          3.5600     2.4150    -0.1390 ha         1 UNL       0.135000
     53 H17          3.2800     2.2510    -2.5580 ha         1 UNL       0.146000
     54 H18          2.0420     1.4380    -4.5100 ha         1 UNL       0.143000
     55 H19          0.1990     0.2060    -5.4750 ha         1 UNL       0.154000
     56 H20         -1.2020    -3.2280    -5.7680 ha         1 UNL       0.139500
     57 H21         -1.5640    -3.3840    -8.1760 ha         1 UNL       0.150000
     58 H22         -1.1390    -2.5870   -10.3850 h1         1 UNL       0.048700
     59 H23         -2.4310    -2.2270   -11.5350 h1         1 UNL       0.048700
     60 H24         -2.7610    -3.3670   -10.2220 h1         1 UNL       0.048700
     61 H25         -3.2750     0.5730    -8.1820 ha         1 UNL       0.150000
     62 H26         -2.9200     0.7260    -5.7480 ha         1 UNL       0.139500
     63 H27         -3.5210    -2.3350    -3.6570 ha         1 UNL       0.147000
     64 H28         -3.2180    -2.2290    -1.2350 ha         1 UNL       0.138000
     65 H29         -1.9570    -1.4480     0.7230 ha         1 UNL       0.134000
     66 H30         -0.1110    -0.2160     1.6970 ha         1 UNL       0.122000
     67 H31          0.4470     2.7900     2.0580 ha         1 UNL       0.163500
     68 H32          0.8380     3.1160     4.4530 ha         1 UNL       0.133500
@<TRIPOS>BOND
     1     1     2 1   
     2     1    37 1   
     3     1    38 1   
     4     1    39 1   
     5     2     3 1   
     6     2    40 1   
     7     2    41 1   
     8     3     4 1   
     9     3     5 1   
    10     3     6 1   
    11     4    42 1   
    12     4    43 1   
    13     4    44 1   
    14     5    45 1   
    15     5    46 1   
    16     5    47 1   
    17     6     7 1   
    18     6    48 1   
    19     6    49 1   
    20     7     8 ar  
    21     7    36 ar  
    22     8     9 ar  
    23     8    50 1   
    24     9    10 ar  
    25     9    51 1   
    26    10    11 1   
    27    10    35 ar  
    28    11    12 ar  
    29    11    32 ar  
    30    12    13 ar  
    31    12    52 1   
    32    13    14 ar  
    33    13    53 1   
    34    14    15 ar  
    35    14    33 ar  
    36    15    16 ar  
    37    15    54 1   
    38    16    17 ar  
    39    16    55 1   
    40    17    18 ar  
    41    17    34 ar  
    42    18    19 1   
    43    18    27 ar  
    44    19    20 ar  
    45    19    26 ar  
    46    20    21 ar  
    47    20    56 1   
    48    21    22 ar  
    49    21    57 1   
    50    22    23 1   
    51    22    25 ar  
    52    23    24 1   
    53    24    58 1   
    54    24    59 1   
    55    24    60 1   
    56    25    26 ar  
    57    25    61 1   
    58    26    62 1   
    59    27    28 ar  
    60    27    63 1   
    61    28    29 ar  
    62    28    64 1   
    63    29    30 ar  
    64    29    34 ar  
    65    30    31 ar  
    66    30    65 1   
    67    31    32 ar  
    68    31    66 1   
    69    32    33 ar  
    70    33    34 ar  
    71    35    36 ar  
    72    35    67 1   
    73    36    68 1   
@<TRIPOS>SUBSTRUCTURE
     1 UNL         1 TEMP              0 ****  ****    0 ROOT
