@<TRIPOS>MOLECULE
UNL
   68    73     1     0     0
SMALL
bcc


@<TRIPOS>ATOM
      1 C1          -8.4120    -3.3620    -1.8760 c3         1 UNL      -0.128100
      2 C2          -7.6480    -2.4230    -2.7960 c3         1 UNL       0.116800
      3 N1          -6.3660    -1.8350    -2.1690 n4         1 UNL      -0.608800
      4 C3          -6.6990    -1.0180    -0.9270 c3         1 UNL       0.088600
      5 C4          -5.7550    -0.8890    -3.2080 c3         1 UNL       0.088600
      6 C5          -5.3680    -2.9690    -1.8380 c3         1 UNL       0.184100
      7 C6          -4.0010    -2.5550    -1.3470 ca         1 UNL      -0.190300
      8 C7          -2.9390    -2.3860    -2.2480 ca         1 UNL      -0.105000
      9 C8          -1.6720    -2.0090    -1.7920 ca         1 UNL      -0.120000
     10 C9          -1.4330    -1.7970    -0.4270 cp         1 UNL       0.039000
     11 C10         -0.0910    -1.4290     0.0510 cp         1 UNL      -0.088000
     12 C11          0.8590    -2.4530     0.1910 ca         1 UNL      -0.101000
     13 C12          2.1490    -2.1800     0.6380 ca         1 UNL      -0.123000
     14 C13          2.5240    -0.8740     0.9590 ca         1 UNL      -0.001000
     15 C14          3.8190    -0.6040     1.4020 ca         1 UNL      -0.135000
     16 C15          4.2040     0.6970     1.7250 ca         1 UNL      -0.089000
     17 C16          3.3090     1.7810     1.6240 ca         1 UNL      -0.034000
     18 C17          3.6740     3.1160     1.9550 cp         1 UNL       0.015000
     19 C18          5.0150     3.4740     2.4460 cp         1 UNL      -0.102000
     20 C19          5.9700     4.0280     1.5840 ca         1 UNL      -0.080500
     21 C20          7.2450     4.3570     2.0540 ca         1 UNL      -0.182000
     22 C21          7.5900     4.1400     3.3900 ca         1 UNL       0.140100
     23 O1           8.8700     4.4980     3.7140 os         1 UNL      -0.321900
     24 C22          9.2910     4.2440     5.0480 c3         1 UNL       0.111700
     25 C23          6.6430     3.5990     4.2580 ca         1 UNL      -0.182000
     26 C24          5.3650     3.2710     3.7890 ca         1 UNL      -0.080500
     27 C25          2.7270     4.1430     1.8140 ca         1 UNL      -0.122000
     28 C26          1.4390     3.8730     1.3600 ca         1 UNL      -0.097000
     29 C27          1.0610     2.5670     1.0360 ca         1 UNL      -0.055000
     30 C28         -0.2320     2.2980     0.5800 ca         1 UNL      -0.083000
     31 C29         -0.6160     0.9970     0.2540 ca         1 UNL      -0.152000
     32 C30          0.2740    -0.0900     0.3730 ca         1 UNL       0.008000
     33 C31          1.5910     0.1820     0.8320 ca         1 UNL      -0.023000
     34 C32          1.9910     1.5090     1.1660 ca         1 UNL      -0.008000
     35 C33         -2.4920    -1.9770     0.4720 ca         1 UNL      -0.120000
     36 C34         -3.7610    -2.3520     0.0200 ca         1 UNL      -0.105000
     37 H1          -9.3240    -3.7030    -2.3800 hc         1 UNL       0.075033
     38 H2          -8.7230    -2.8730    -0.9490 hc         1 UNL       0.075033
     39 H3          -7.8360    -4.2560    -1.6250 hc         1 UNL       0.075033
     40 H4          -8.2860    -1.5760    -3.0750 hx         1 UNL       0.095200
     41 H5          -7.3490    -2.9480    -3.7110 hx         1 UNL       0.095200
     42 H6          -6.9880    -1.6970    -0.1210 hx         1 UNL       0.099367
     43 H7          -7.5210    -0.3380    -1.1710 hx         1 UNL       0.099367
     44 H8          -5.8190    -0.4400    -0.6330 hx         1 UNL       0.099367
     45 H9          -5.4560    -1.4800    -4.0790 hx         1 UNL       0.099367
     46 H10         -4.8960    -0.3740    -2.7700 hx         1 UNL       0.099367
     47 H11         -6.5140    -0.1530    -3.4920 hx         1 UNL       0.099367
     48 H12         -5.8380    -3.6010    -1.0760 hx         1 UNL       0.098200
     49 H13         -5.2690    -3.5760    -2.7470 hx         1 UNL       0.098200
     50 H14         -3.0710    -2.5610    -3.3140 ha         1 UNL       0.133500
     51 H15         -0.8580    -1.8880    -2.5060 ha         1 UNL       0.163500
     52 H16          0.5950    -3.4810    -0.0480 ha         1 UNL       0.135000
     53 H17          2.8580    -3.0000     0.7330 ha         1 UNL       0.146000
     54 H18          4.5520    -1.4030     1.5010 ha         1 UNL       0.142000
     55 H19          5.2290     0.8530     2.0570 ha         1 UNL       0.153000
     56 H20          5.7300     4.2020     0.5370 ha         1 UNL       0.139500
     57 H21          7.9770     4.7840     1.3720 ha         1 UNL       0.149500
     58 H22         10.3380     4.5490     5.1320 h1         1 UNL       0.048367
     59 H23          8.7110     4.8370     5.7630 h1         1 UNL       0.048367
     60 H24          9.2360     3.1760     5.2840 h1         1 UNL       0.048367
     61 H25          6.8630     3.4200     5.3060 ha         1 UNL       0.149500
     62 H26          4.6390     2.8480     4.4820 ha         1 UNL       0.139500
     63 H27          2.9960     5.1680     2.0640 ha         1 UNL       0.148000
     64 H28          0.7350     4.6970     1.2650 ha         1 UNL       0.139000
     65 H29         -0.9560     3.1030     0.4740 ha         1 UNL       0.135000
     66 H30         -1.6320     0.8460    -0.1020 ha         1 UNL       0.122000
     67 H31         -2.3230    -1.8350     1.5390 ha         1 UNL       0.163500
     68 H32         -4.5470    -2.5000     0.7570 ha         1 UNL       0.133500
@<TRIPOS>BOND
     1     1     2 1   
     2     1    37 1   
     3     1    38 1   
     4     1    39 1   
     5     2     3 1   
     6     2    40 1   
     7     2    41 1   
     8     3     4 1   
     9     3     5 1   
    10     3     6 1   
    11     4    42 1   
    12     4    43 1   
    13     4    44 1   
    14     5    45 1   
    15     5    46 1   
    16     5    47 1   
    17     6     7 1   
    18     6    48 1   
    19     6    49 1   
    20     7     8 ar  
    21     7    36 ar  
    22     8     9 ar  
    23     8    50 1   
    24     9    10 ar  
    25     9    51 1   
    26    10    11 1   
    27    10    35 ar  
    28    11    12 ar  
    29    11    32 ar  
    30    12    13 ar  
    31    12    52 1   
    32    13    14 ar  
    33    13    53 1   
    34    14    15 ar  
    35    14    33 ar  
    36    15    16 ar  
    37    15    54 1   
    38    16    17 ar  
    39    16    55 1   
    40    17    18 ar  
    41    17    34 ar  
    42    18    19 1   
    43    18    27 ar  
    44    19    20 ar  
    45    19    26 ar  
    46    20    21 ar  
    47    20    56 1   
    48    21    22 ar  
    49    21    57 1   
    50    22    23 1   
    51    22    25 ar  
    52    23    24 1   
    53    24    58 1   
    54    24    59 1   
    55    24    60 1   
    56    25    26 ar  
    57    25    61 1   
    58    26    62 1   
    59    27    28 ar  
    60    27    63 1   
    61    28    29 ar  
    62    28    64 1   
    63    29    30 ar  
    64    29    34 ar  
    65    30    31 ar  
    66    30    65 1   
    67    31    32 ar  
    68    31    66 1   
    69    32    33 ar  
    70    33    34 ar  
    71    35    36 ar  
    72    35    67 1   
    73    36    68 1   
@<TRIPOS>SUBSTRUCTURE
     1 UNL         1 TEMP              0 ****  ****    0 ROOT
