@<TRIPOS>MOLECULE
UNL
  104   109     1     0     0
SMALL
bcc


@<TRIPOS>ATOM
      1 C1           7.7720    -2.0660    -0.4580 c2         1 UNL      -0.200500
      2 C2           8.7040    -2.4200    -1.3610 c2         1 UNL      -0.193700
      3 C3           9.4190    -1.5220    -2.3300 c3         1 UNL       0.155600
      4 O1           8.9870    -0.1690    -2.2330 os         1 UNL      -0.424600
      5 C4           7.9650     0.1750    -3.1700 c3         1 UNL       0.107400
      6 C5           8.5540     0.5490    -4.5330 c3         1 UNL       0.110400
      7 O2           7.4990     0.8630    -5.4350 os         1 UNL      -0.421600
      8 C6           7.9720     1.1000    -6.7630 c3         1 UNL       0.096900
      9 C7           6.7930     1.4810    -7.6650 c3         1 UNL       0.107900
     10 O3           5.8190     0.4370    -7.7270 os         1 UNL      -0.420100
     11 C8           6.0650    -0.5330    -8.7430 c3         1 UNL       0.107900
     12 C9           5.1110    -1.7200    -8.5660 c3         1 UNL       0.107900
     13 O4           3.7890    -1.4060    -9.0240 os         1 UNL      -0.334900
     14 C10          2.8330    -1.1380    -8.0840 ca         1 UNL       0.125100
     15 C11          1.5140    -1.3010    -8.5140 ca         1 UNL      -0.181500
     16 C12          0.4420    -1.0250    -7.6560 ca         1 UNL      -0.086250
     17 C13          0.6710    -0.5710    -6.3510 cp         1 UNL      -0.077500
     18 C14         -0.4350    -0.2400    -5.4360 cp         1 UNL      -0.018000
     19 C15         -1.2210     0.8850    -5.7350 ca         1 UNL      -0.119000
     20 C16         -2.2070     1.3240    -4.8580 ca         1 UNL      -0.116000
     21 C17         -2.4240     0.6610    -3.6480 ca         1 UNL      -0.032500
     22 C18         -3.3860     1.1290    -2.7530 ca         1 UNL      -0.118500
     23 C19         -3.5800     0.4980    -1.5240 ca         1 UNL      -0.114500
     24 C20         -2.8260    -0.6320    -1.1400 ca         1 UNL      -0.020500
     25 C21         -2.9650    -1.2680     0.1280 cp         1 UNL      -0.018000
     26 C22         -3.7970    -0.7180     1.2170 cp         1 UNL      -0.077500
     27 C23         -3.4560     0.5030     1.8220 ca         1 UNL      -0.086250
     28 C24         -4.1900     1.0090     2.9000 ca         1 UNL      -0.181500
     29 C25         -5.2720     0.2930     3.4070 ca         1 UNL       0.125100
     30 O5          -6.0390     0.6550     4.4800 os         1 UNL      -0.334900
     31 C26         -5.6020     1.7900     5.2330 c3         1 UNL       0.107900
     32 C27         -6.3920     1.8820     6.5420 c3         1 UNL       0.107900
     33 O6          -6.2130     0.7810     7.4370 os         1 UNL      -0.420100
     34 C28         -4.8760     0.4860     7.8370 c3         1 UNL       0.107900
     35 C29         -4.0850     1.6620     8.4250 c3         1 UNL       0.096900
     36 O7          -4.7670     2.3990     9.4340 os         1 UNL      -0.421600
     37 C30         -5.1510     1.6720    10.6050 c3         1 UNL       0.110400
     38 C31         -3.9950     1.0080    11.3560 c3         1 UNL       0.107400
     39 O8          -3.0140     1.9850    11.7050 os         1 UNL      -0.424600
     40 C32         -1.9560     1.4300    12.4780 c3         1 UNL       0.155600
     41 C33         -0.8620     2.4340    12.6930 c2         1 UNL      -0.193700
     42 C34         -0.8100     3.6770    12.1910 c2         1 UNL      -0.200500
     43 C35         -5.6340    -0.9120     2.8010 ca         1 UNL      -0.181500
     44 C36         -4.9020    -1.4170     1.7200 ca         1 UNL      -0.086250
     45 C37         -2.2260    -2.4340     0.3920 ca         1 UNL      -0.119000
     46 C38         -1.3350    -2.9540    -0.5440 ca         1 UNL      -0.116000
     47 C39         -1.1420    -2.3070    -1.7650 ca         1 UNL      -0.032500
     48 C40         -0.2070    -2.7990    -2.6780 ca         1 UNL      -0.118500
     49 C41          0.0190    -2.1360    -3.8830 ca         1 UNL      -0.114500
     50 C42         -0.6810    -0.9600    -4.2290 ca         1 UNL      -0.020500
     51 C43         -1.6650    -0.4860    -3.3210 ca         1 UNL      -0.016000
     52 C44         -1.8860    -1.1430    -2.0760 ca         1 UNL      -0.016000
     53 C45          2.0000    -0.3910    -5.9370 ca         1 UNL      -0.086250
     54 C46          3.0690    -0.6810    -6.7900 ca         1 UNL      -0.181500
     55 H1           7.4360    -1.0380    -0.3480 ha         1 UNL       0.116500
     56 H2           7.3270    -2.8020     0.2060 ha         1 UNL       0.116500
     57 H3           9.0060    -3.4660    -1.4040 ha         1 UNL       0.122000
     58 H4          10.4870    -1.5410    -2.0960 h1         1 UNL       0.049200
     59 H5           9.3010    -1.9170    -3.3470 h1         1 UNL       0.049200
     60 H6           7.4210     1.0410    -2.7700 h1         1 UNL       0.050200
     61 H7           7.2220    -0.6290    -3.2660 h1         1 UNL       0.050200
     62 H8           9.2160     1.4160    -4.4270 h1         1 UNL       0.053200
     63 H9           9.1500    -0.2780    -4.9340 h1         1 UNL       0.053200
     64 H10          8.6980     1.9210    -6.7470 h1         1 UNL       0.045700
     65 H11          8.4560     0.1900    -7.1340 h1         1 UNL       0.045700
     66 H12          7.1370     1.7520    -8.6710 h1         1 UNL       0.063700
     67 H13          6.2840     2.3510    -7.2330 h1         1 UNL       0.063700
     68 H14          7.1000    -0.8900    -8.6760 h1         1 UNL       0.056450
     69 H15          5.9100    -0.0630    -9.7200 h1         1 UNL       0.056450
     70 H16          5.4570    -2.5340    -9.2140 h1         1 UNL       0.061700
     71 H17          5.1160    -2.1130    -7.5400 h1         1 UNL       0.061700
     72 H18          1.3170    -1.6490    -9.5260 ha         1 UNL       0.149500
     73 H19         -0.5740    -1.1670    -8.0150 ha         1 UNL       0.140750
     74 H20         -1.0420     1.4520    -6.6480 ha         1 UNL       0.138000
     75 H21         -2.7910     2.2040    -5.1200 ha         1 UNL       0.135000
     76 H22         -3.9860     2.0050    -2.9910 ha         1 UNL       0.133500
     77 H23         -4.3430     0.9060    -0.8650 ha         1 UNL       0.143000
     78 H24         -2.5950     1.0650     1.4650 ha         1 UNL       0.140750
     79 H25         -3.8830     1.9600     3.3190 ha         1 UNL       0.149500
     80 H26         -5.7910     2.6990     4.6490 h1         1 UNL       0.061700
     81 H27         -4.5330     1.7140     5.4550 h1         1 UNL       0.061700
     82 H28         -7.4630     1.9090     6.3140 h1         1 UNL       0.056450
     83 H29         -6.1570     2.8150     7.0670 h1         1 UNL       0.056450
     84 H30         -4.9560    -0.3080     8.5870 h1         1 UNL       0.063700
     85 H31         -4.3330     0.0520     6.9910 h1         1 UNL       0.063700
     86 H32         -3.1160     1.3220     8.8010 h1         1 UNL       0.045700
     87 H33         -3.8580     2.3820     7.6320 h1         1 UNL       0.045700
     88 H34         -5.9210     0.9390    10.3450 h1         1 UNL       0.053200
     89 H35         -5.6210     2.4090    11.2670 h1         1 UNL       0.053200
     90 H36         -4.3800     0.5370    12.2660 h1         1 UNL       0.050200
     91 H37         -3.5280     0.2350    10.7390 h1         1 UNL       0.050200
     92 H38         -2.3520     1.1180    13.4510 h1         1 UNL       0.049200
     93 H39         -1.5380     0.5570    11.9640 h1         1 UNL       0.049200
     94 H40         -0.0360     2.1010    13.3180 ha         1 UNL       0.122000
     95 H41          0.0300     4.3290    12.4020 ha         1 UNL       0.116500
     96 H42         -1.6050     4.0660    11.5560 ha         1 UNL       0.116500
     97 H43         -6.4830    -1.4740     3.1830 ha         1 UNL       0.149500
     98 H44         -5.1950    -2.3670     1.2790 ha         1 UNL       0.140750
     99 H45         -2.3240    -2.9300     1.3560 ha         1 UNL       0.138000
    100 H46         -0.7730    -3.8510    -0.2920 ha         1 UNL       0.135000
    101 H47          0.3650    -3.6990    -2.4560 ha         1 UNL       0.133500
    102 H48          0.7590    -2.5560    -4.5620 ha         1 UNL       0.143000
    103 H49          2.2110    -0.0140    -4.9380 ha         1 UNL       0.140750
    104 H50          4.0700    -0.5090    -6.4130 ha         1 UNL       0.149500
@<TRIPOS>BOND
     1     1     2 2   
     2     1    55 1   
     3     1    56 1   
     4     2     3 1   
     5     2    57 1   
     6     3     4 1   
     7     3    58 1   
     8     3    59 1   
     9     4     5 1   
    10     5     6 1   
    11     5    60 1   
    12     5    61 1   
    13     6     7 1   
    14     6    62 1   
    15     6    63 1   
    16     7     8 1   
    17     8     9 1   
    18     8    64 1   
    19     8    65 1   
    20     9    10 1   
    21     9    66 1   
    22     9    67 1   
    23    10    11 1   
    24    11    12 1   
    25    11    68 1   
    26    11    69 1   
    27    12    13 1   
    28    12    70 1   
    29    12    71 1   
    30    13    14 1   
    31    14    15 ar  
    32    14    54 ar  
    33    15    16 ar  
    34    15    72 1   
    35    16    17 ar  
    36    16    73 1   
    37    17    18 1   
    38    17    53 ar  
    39    18    19 ar  
    40    18    50 ar  
    41    19    20 ar  
    42    19    74 1   
    43    20    21 ar  
    44    20    75 1   
    45    21    22 ar  
    46    21    51 ar  
    47    22    23 ar  
    48    22    76 1   
    49    23    24 ar  
    50    23    77 1   
    51    24    25 ar  
    52    24    52 ar  
    53    25    26 1   
    54    25    45 ar  
    55    26    27 ar  
    56    26    44 ar  
    57    27    28 ar  
    58    27    78 1   
    59    28    29 ar  
    60    28    79 1   
    61    29    30 1   
    62    29    43 ar  
    63    30    31 1   
    64    31    32 1   
    65    31    80 1   
    66    31    81 1   
    67    32    33 1   
    68    32    82 1   
    69    32    83 1   
    70    33    34 1   
    71    34    35 1   
    72    34    84 1   
    73    34    85 1   
    74    35    36 1   
    75    35    86 1   
    76    35    87 1   
    77    36    37 1   
    78    37    38 1   
    79    37    88 1   
    80    37    89 1   
    81    38    39 1   
    82    38    90 1   
    83    38    91 1   
    84    39    40 1   
    85    40    41 1   
    86    40    92 1   
    87    40    93 1   
    88    41    42 2   
    89    41    94 1   
    90    42    95 1   
    91    42    96 1   
    92    43    44 ar  
    93    43    97 1   
    94    44    98 1   
    95    45    46 ar  
    96    45    99 1   
    97    46    47 ar  
    98    46   100 1   
    99    47    48 ar  
   100    47    52 ar  
   101    48    49 ar  
   102    48   101 1   
   103    49    50 ar  
   104    49   102 1   
   105    50    51 ar  
   106    51    52 ar  
   107    53    54 ar  
   108    53   103 1   
   109    54   104 1   
@<TRIPOS>SUBSTRUCTURE
     1 UNL         1 TEMP              0 ****  ****    0 ROOT
