@<TRIPOS>MOLECULE
UNL
  104   109     1     0     0
SMALL
bcc


@<TRIPOS>ATOM
      1 C1          -5.4550    -0.7690     7.4380 c2         1 UNL      -0.206500
      2 C2          -5.1020    -1.0640     6.1780 c2         1 UNL      -0.175700
      3 C3          -4.2330    -0.2340     5.2790 c3         1 UNL       0.160600
      4 O1          -3.8260     0.9660     5.9290 os         1 UNL      -0.429100
      5 C4          -2.9240     1.7220     5.1140 c3         1 UNL       0.109900
      6 C5          -2.6080     3.0560     5.7890 c3         1 UNL       0.128400
      7 O2          -3.6980     3.9640     5.5930 os         1 UNL      -0.425600
      8 C6          -3.4750     5.2140     6.2490 c3         1 UNL       0.107400
      9 C7          -4.6640     6.1470     6.0070 c3         1 UNL       0.123900
     10 O3          -4.9010     6.4340     4.6270 os         1 UNL      -0.426100
     11 C8          -3.9580     7.3240     4.0390 c3         1 UNL       0.091400
     12 C9          -4.2660     7.4350     2.5470 c3         1 UNL       0.108900
     13 O4          -3.1720     8.0130     1.8290 os         1 UNL      -0.329900
     14 C10         -2.3040     7.1350     1.2350 ca         1 UNL       0.120600
     15 C11         -2.0860     5.8190     1.6390 ca         1 UNL      -0.180250
     16 C12         -1.1610     5.0210     0.9600 ca         1 UNL      -0.088250
     17 C13         -0.4490     5.5140    -0.1450 cp         1 UNL      -0.077000
     18 C14          0.5010     4.6450    -0.8660 cp         1 UNL      -0.017500
     19 C15          1.8730     4.9280    -0.7570 ca         1 UNL      -0.120000
     20 C16          2.8260     4.1020    -1.3470 ca         1 UNL      -0.116000
     21 C17          2.4340     2.9620    -2.0540 ca         1 UNL      -0.033000
     22 C18          3.3930     2.1170    -2.6160 ca         1 UNL      -0.119000
     23 C19          3.0120     0.9620    -3.2990 ca         1 UNL      -0.114000
     24 C20          1.6570     0.6070    -3.4540 ca         1 UNL      -0.020500
     25 C21          1.2390    -0.5780    -4.1220 cp         1 UNL      -0.017500
     26 C22          2.1770    -1.5910    -4.6340 cp         1 UNL      -0.077000
     27 C23          2.8450    -2.4530    -3.7520 ca         1 UNL      -0.088250
     28 C24          3.6820    -3.4670    -4.2300 ca         1 UNL      -0.180250
     29 C25          3.8430    -3.6570    -5.5990 ca         1 UNL       0.120600
     30 O5           4.5780    -4.6420    -6.1950 os         1 UNL      -0.329900
     31 C26          4.9790    -5.7760    -5.4150 c3         1 UNL       0.108900
     32 C27          3.8240    -6.7560    -5.1630 c3         1 UNL       0.091400
     33 O6           3.1650    -6.4790    -3.9240 os         1 UNL      -0.426100
     34 C28          3.7050    -7.2140    -2.8200 c3         1 UNL       0.123900
     35 C29          3.1440    -6.6540    -1.5130 c3         1 UNL       0.107400
     36 O7           1.7750    -7.0390    -1.3560 os         1 UNL      -0.425600
     37 C30          1.1890    -6.4260    -0.2030 c3         1 UNL       0.128400
     38 C31         -0.3100    -6.7200    -0.1660 c3         1 UNL       0.109900
     39 O8          -0.9850    -5.8760    -1.1040 os         1 UNL      -0.429100
     40 C32         -2.3880    -6.1170    -1.1190 c3         1 UNL       0.160600
     41 C33         -2.9730    -5.2230    -2.1630 c2         1 UNL      -0.175700
     42 C34         -3.9720    -4.3550    -1.9570 c2         1 UNL      -0.206500
     43 C35          3.2100    -2.7820    -6.4840 ca         1 UNL      -0.180250
     44 C36          2.3790    -1.7610    -6.0100 ca         1 UNL      -0.088250
     45 C37         -0.1350    -0.8370    -4.2640 ca         1 UNL      -0.120000
     46 C38         -1.0880     0.0380    -3.7540 ca         1 UNL      -0.116000
     47 C39         -0.6960     1.1880    -3.0670 ca         1 UNL      -0.033000
     48 C40         -1.6580     2.0440    -2.5320 ca         1 UNL      -0.119000
     49 C41         -1.2740     3.1850    -1.8280 ca         1 UNL      -0.114000
     50 C42          0.0820     3.5100    -1.6200 ca         1 UNL      -0.020500
     51 C43          1.0600     2.6550    -2.1960 ca         1 UNL      -0.016000
     52 C44          0.6770     1.4840    -2.9110 ca         1 UNL      -0.016000
     53 C45         -0.6580     6.8450    -0.5290 ca         1 UNL      -0.088250
     54 C46         -1.5740     7.6490     0.1610 ca         1 UNL      -0.180250
     55 H1          -5.1160     0.1450     7.9180 ha         1 UNL       0.116500
     56 H2          -6.0940    -1.4300     8.0130 ha         1 UNL       0.116500
     57 H3          -5.4740    -1.9900     5.7430 ha         1 UNL       0.130500
     58 H4          -4.7930     0.0170     4.3710 h1         1 UNL       0.036200
     59 H5          -3.3490    -0.8210     5.0000 h1         1 UNL       0.036200
     60 H6          -3.3740     1.8920     4.1300 h1         1 UNL       0.042950
     61 H7          -1.9980     1.1470     5.0010 h1         1 UNL       0.042950
     62 H8          -1.7110     3.4900     5.3340 h1         1 UNL       0.053200
     63 H9          -2.4460     2.9100     6.8620 h1         1 UNL       0.053200
     64 H10         -3.3740     5.0380     7.3250 h1         1 UNL       0.045950
     65 H11         -2.5450     5.6530     5.8750 h1         1 UNL       0.045950
     66 H12         -4.5430     7.0850     6.5600 h1         1 UNL       0.052450
     67 H13         -5.5730     5.6580     6.3740 h1         1 UNL       0.052450
     68 H14         -2.9350     6.9680     4.1930 h1         1 UNL       0.055200
     69 H15         -4.0350     8.3120     4.5100 h1         1 UNL       0.055200
     70 H16         -4.5930     6.4800     2.1130 h1         1 UNL       0.068700
     71 H17         -5.1250     8.1080     2.4200 h1         1 UNL       0.068700
     72 H18         -2.6100     5.3780     2.4800 ha         1 UNL       0.154250
     73 H19         -0.9980     3.9970     1.2950 ha         1 UNL       0.140500
     74 H20          2.2070     5.7920    -0.1850 ha         1 UNL       0.137500
     75 H21          3.8790     4.3490    -1.2340 ha         1 UNL       0.134500
     76 H22          4.4530     2.3420    -2.5200 ha         1 UNL       0.133500
     77 H23          3.7990     0.3380    -3.7190 ha         1 UNL       0.143000
     78 H24          2.6950    -2.3520    -2.6780 ha         1 UNL       0.140500
     79 H25          4.1650    -4.1070    -3.5010 ha         1 UNL       0.154250
     80 H26          5.7190    -6.2920    -6.0380 h1         1 UNL       0.068700
     81 H27          5.5020    -5.4690    -4.5040 h1         1 UNL       0.068700
     82 H28          4.1920    -7.7900    -5.1610 h1         1 UNL       0.055200
     83 H29          3.0740    -6.6650    -5.9540 h1         1 UNL       0.055200
     84 H30          3.4310    -8.2690    -2.9380 h1         1 UNL       0.052450
     85 H31          4.7970    -7.1170    -2.8130 h1         1 UNL       0.052450
     86 H32          3.7190    -7.0550    -0.6700 h1         1 UNL       0.045950
     87 H33          3.2170    -5.5590    -1.5160 h1         1 UNL       0.045950
     88 H34          1.3580    -5.3430    -0.2380 h1         1 UNL       0.053200
     89 H35          1.6670    -6.8420     0.6920 h1         1 UNL       0.053200
     90 H36         -0.6970    -6.5040     0.8370 h1         1 UNL       0.042950
     91 H37         -0.5000    -7.7710    -0.4180 h1         1 UNL       0.042950
     92 H38         -2.8080    -5.9070    -0.1260 h1         1 UNL       0.036200
     93 H39         -2.5890    -7.1620    -1.3820 h1         1 UNL       0.036200
     94 H40         -2.5230    -5.2960    -3.1520 ha         1 UNL       0.130500
     95 H41         -4.4380    -4.2440    -0.9820 ha         1 UNL       0.116500
     96 H42         -4.3310    -3.7290    -2.7670 ha         1 UNL       0.116500
     97 H43          3.3450    -2.9140    -7.5550 ha         1 UNL       0.154250
     98 H44          1.8760    -1.1130    -6.7230 ha         1 UNL       0.140500
     99 H45         -0.4660    -1.7450    -4.7670 ha         1 UNL       0.137500
    100 H46         -2.1390    -0.2030    -3.8830 ha         1 UNL       0.134500
    101 H47         -2.7190     1.8330    -2.6500 ha         1 UNL       0.133500
    102 H48         -2.0650     3.8250    -1.4440 ha         1 UNL       0.143000
    103 H49         -0.1230     7.2620    -1.3800 ha         1 UNL       0.140500
    104 H50         -1.7280     8.6780    -0.1510 ha         1 UNL       0.154250
@<TRIPOS>BOND
     1     1     2 2   
     2     1    55 1   
     3     1    56 1   
     4     2     3 1   
     5     2    57 1   
     6     3     4 1   
     7     3    58 1   
     8     3    59 1   
     9     4     5 1   
    10     5     6 1   
    11     5    60 1   
    12     5    61 1   
    13     6     7 1   
    14     6    62 1   
    15     6    63 1   
    16     7     8 1   
    17     8     9 1   
    18     8    64 1   
    19     8    65 1   
    20     9    10 1   
    21     9    66 1   
    22     9    67 1   
    23    10    11 1   
    24    11    12 1   
    25    11    68 1   
    26    11    69 1   
    27    12    13 1   
    28    12    70 1   
    29    12    71 1   
    30    13    14 1   
    31    14    15 ar  
    32    14    54 ar  
    33    15    16 ar  
    34    15    72 1   
    35    16    17 ar  
    36    16    73 1   
    37    17    18 1   
    38    17    53 ar  
    39    18    19 ar  
    40    18    50 ar  
    41    19    20 ar  
    42    19    74 1   
    43    20    21 ar  
    44    20    75 1   
    45    21    22 ar  
    46    21    51 ar  
    47    22    23 ar  
    48    22    76 1   
    49    23    24 ar  
    50    23    77 1   
    51    24    25 ar  
    52    24    52 ar  
    53    25    26 1   
    54    25    45 ar  
    55    26    27 ar  
    56    26    44 ar  
    57    27    28 ar  
    58    27    78 1   
    59    28    29 ar  
    60    28    79 1   
    61    29    30 1   
    62    29    43 ar  
    63    30    31 1   
    64    31    32 1   
    65    31    80 1   
    66    31    81 1   
    67    32    33 1   
    68    32    82 1   
    69    32    83 1   
    70    33    34 1   
    71    34    35 1   
    72    34    84 1   
    73    34    85 1   
    74    35    36 1   
    75    35    86 1   
    76    35    87 1   
    77    36    37 1   
    78    37    38 1   
    79    37    88 1   
    80    37    89 1   
    81    38    39 1   
    82    38    90 1   
    83    38    91 1   
    84    39    40 1   
    85    40    41 1   
    86    40    92 1   
    87    40    93 1   
    88    41    42 2   
    89    41    94 1   
    90    42    95 1   
    91    42    96 1   
    92    43    44 ar  
    93    43    97 1   
    94    44    98 1   
    95    45    46 ar  
    96    45    99 1   
    97    46    47 ar  
    98    46   100 1   
    99    47    48 ar  
   100    47    52 ar  
   101    48    49 ar  
   102    48   101 1   
   103    49    50 ar  
   104    49   102 1   
   105    50    51 ar  
   106    51    52 ar  
   107    53    54 ar  
   108    53   103 1   
   109    54   104 1   
@<TRIPOS>SUBSTRUCTURE
     1 UNL         1 TEMP              0 ****  ****    0 ROOT
