@<TRIPOS>MOLECULE
UNL
  104   109     1     0     0
SMALL
bcc


@<TRIPOS>ATOM
      1 C1          -4.6830     6.6410    -1.9440 c2         1 UNL      -0.204000
      2 C2          -4.1200     5.5770    -1.3500 c2         1 UNL      -0.194200
      3 C3          -3.6470     4.3180    -2.0200 c3         1 UNL       0.158100
      4 O1          -3.8130     4.4090    -3.4270 os         1 UNL      -0.424600
      5 C4          -3.5240     3.1740    -4.0860 c3         1 UNL       0.110900
      6 C5          -3.7120     3.3520    -5.5970 c3         1 UNL       0.127400
      7 O2          -5.0630     3.6540    -5.9590 os         1 UNL      -0.433600
      8 C6          -5.9160     2.5140    -5.9790 c3         1 UNL       0.092400
      9 C7          -7.3290     2.9630    -6.3500 c3         1 UNL       0.125400
     10 O3          -8.2210     1.8540    -6.4280 os         1 UNL      -0.421100
     11 C8          -8.7440     1.4700    -5.1510 c3         1 UNL       0.088900
     12 C9          -9.2090     0.0150    -5.2270 c3         1 UNL       0.109400
     13 O4          -8.1140    -0.8760    -5.4760 os         1 UNL      -0.324900
     14 C10         -7.2580    -1.1740    -4.4560 ca         1 UNL       0.124600
     15 C11         -6.0530    -1.7460    -4.8640 ca         1 UNL      -0.182750
     16 C12         -5.0900    -2.1340    -3.9280 ca         1 UNL      -0.086250
     17 C13         -5.3180    -1.9570    -2.5580 cp         1 UNL      -0.081000
     18 C14         -4.3210    -2.4050    -1.5730 cp         1 UNL      -0.017000
     19 C15         -4.4290    -3.7140    -1.0750 ca         1 UNL      -0.119000
     20 C16         -3.5070    -4.2140    -0.1620 ca         1 UNL      -0.114500
     21 C17         -2.4490    -3.4170     0.2800 ca         1 UNL      -0.033500
     22 C18         -1.5250    -3.9240     1.1930 ca         1 UNL      -0.118000
     23 C19         -0.4590    -3.1380     1.6340 ca         1 UNL      -0.118000
     24 C20         -0.2730    -1.8180     1.1800 ca         1 UNL      -0.022000
     25 C21          0.8090    -0.9990     1.6130 cp         1 UNL      -0.017000
     26 C22          1.8300    -1.4640     2.5650 cp         1 UNL      -0.081000
     27 C23          1.6730    -1.2530     3.9410 ca         1 UNL      -0.086250
     28 C24          2.6490    -1.6790     4.8500 ca         1 UNL      -0.182750
     29 C25          3.7990    -2.3220     4.3960 ca         1 UNL       0.124600
     30 O5           4.8360    -2.7760     5.1590 os         1 UNL      -0.324900
     31 C26          4.8300    -2.5200     6.5620 c3         1 UNL       0.109400
     32 C27          5.3440    -1.1150     6.8860 c3         1 UNL       0.088900
     33 O6           5.4230    -0.9120     8.2990 os         1 UNL      -0.421100
     34 C28          6.6910    -1.2690     8.8650 c3         1 UNL       0.125400
     35 C29          7.6680    -0.0920     8.8210 c3         1 UNL       0.092400
     36 O7           8.2330     0.0230     7.5120 os         1 UNL      -0.433600
     37 C30          9.0330     1.1970     7.3820 c3         1 UNL       0.127400
     38 C31          9.5360     1.3060     5.9490 c3         1 UNL       0.110900
     39 O8          10.2900     2.5110     5.8060 os         1 UNL      -0.424600
     40 C32         10.7080     2.7330     4.4620 c3         1 UNL       0.158100
     41 C33          9.6060     3.4020     3.7010 c2         1 UNL      -0.194200
     42 C34          9.0660     2.9420     2.5660 c2         1 UNL      -0.204000
     43 C35          3.9540    -2.5460     3.0250 ca         1 UNL      -0.182750
     44 C36          2.9840    -2.1180     2.1150 ca         1 UNL      -0.086250
     45 C37          0.9140     0.3140     1.1220 ca         1 UNL      -0.119000
     46 C38         -0.0160     0.8200     0.2160 ca         1 UNL      -0.114500
     47 C39         -1.0790     0.0260    -0.2270 ca         1 UNL      -0.033500
     48 C40         -2.0050     0.5320    -1.1410 ca         1 UNL      -0.118000
     49 C41         -3.0660    -0.2570    -1.5870 ca         1 UNL      -0.118000
     50 C42         -3.2490    -1.5800    -1.1360 ca         1 UNL      -0.022000
     51 C43         -2.3090    -2.0950    -0.2030 ca         1 UNL      -0.015500
     52 C44         -1.2190    -1.2980     0.2530 ca         1 UNL      -0.015500
     53 C45         -6.5280    -1.3790    -2.1550 ca         1 UNL      -0.086250
     54 C46         -7.4950    -0.9920    -3.0940 ca         1 UNL      -0.182750
     55 H1          -5.0000     7.5040    -1.3640 ha         1 UNL       0.115750
     56 H2          -4.8520     6.6670    -3.0190 ha         1 UNL       0.115750
     57 H3          -3.9820     5.6110    -0.2700 ha         1 UNL       0.130000
     58 H4          -4.2270     3.4740    -1.6280 h1         1 UNL       0.048450
     59 H5          -2.5870     4.1590    -1.7880 h1         1 UNL       0.048450
     60 H6          -4.1860     2.3940    -3.6970 h1         1 UNL       0.038700
     61 H7          -2.4830     2.8910    -3.8820 h1         1 UNL       0.038700
     62 H8          -3.3670     2.4650    -6.1410 h1         1 UNL       0.050950
     63 H9          -3.1130     4.2060    -5.9290 h1         1 UNL       0.050950
     64 H10         -5.5560     1.7840    -6.7140 h1         1 UNL       0.043450
     65 H11         -5.9200     2.0240    -5.0020 h1         1 UNL       0.043450
     66 H12         -7.3060     3.4350    -7.3370 h1         1 UNL       0.061200
     67 H13         -7.7030     3.7260    -5.6580 h1         1 UNL       0.061200
     68 H14         -7.9910     1.5880    -4.3680 h1         1 UNL       0.061950
     69 H15         -9.5930     2.1260    -4.9210 h1         1 UNL       0.061950
     70 H16         -9.7770    -0.2830    -4.3400 h1         1 UNL       0.068450
     71 H17         -9.8820    -0.0970    -6.0840 h1         1 UNL       0.068450
     72 H18         -5.8630    -1.8990    -5.9240 ha         1 UNL       0.149750
     73 H19         -4.1650    -2.5860    -4.2750 ha         1 UNL       0.140500
     74 H20         -5.2430    -4.3560    -1.4070 ha         1 UNL       0.138500
     75 H21         -3.6250    -5.2350     0.1960 ha         1 UNL       0.135500
     76 H22         -1.6190    -4.9390     1.5720 ha         1 UNL       0.136000
     77 H23          0.2310    -3.5780     2.3510 ha         1 UNL       0.142000
     78 H24          0.7840    -0.7480     4.3160 ha         1 UNL       0.140500
     79 H25          2.4720    -1.4830     5.9020 ha         1 UNL       0.149750
     80 H26          3.8590    -2.7260     7.0270 h1         1 UNL       0.068450
     81 H27          5.5060    -3.2550     7.0140 h1         1 UNL       0.068450
     82 H28          4.6460    -0.3670     6.4940 h1         1 UNL       0.061950
     83 H29          6.2960    -0.9230     6.3840 h1         1 UNL       0.061950
     84 H30          7.0980    -2.1600     8.3750 h1         1 UNL       0.061200
     85 H31          6.4920    -1.5170     9.9120 h1         1 UNL       0.061200
     86 H32          8.4820    -0.2590     9.5320 h1         1 UNL       0.043450
     87 H33          7.1480     0.8370     9.0760 h1         1 UNL       0.043450
     88 H34          9.8800     1.1530     8.0750 h1         1 UNL       0.050950
     89 H35          8.4410     2.0860     7.6300 h1         1 UNL       0.050950
     90 H36          8.6840     1.3000     5.2590 h1         1 UNL       0.038700
     91 H37         10.1640     0.4410     5.7070 h1         1 UNL       0.038700
     92 H38         11.0460     1.8000     4.0010 h1         1 UNL       0.048450
     93 H39         11.5660     3.4110     4.4990 h1         1 UNL       0.048450
     94 H40          9.2270     4.3280     4.1270 ha         1 UNL       0.130000
     95 H41          8.2640     3.4880     2.0750 ha         1 UNL       0.115750
     96 H42          9.3980     2.0200     2.0970 ha         1 UNL       0.115750
     97 H43          4.8450    -3.0470     2.6590 ha         1 UNL       0.149750
     98 H44          3.1330    -2.2970     1.0530 ha         1 UNL       0.140500
     99 H45          1.7330     0.9540     1.4470 ha         1 UNL       0.138500
    100 H46          0.1030     1.8440    -0.1390 ha         1 UNL       0.135500
    101 H47         -1.9050     1.5450    -1.5220 ha         1 UNL       0.136000
    102 H48         -3.7540     0.1790    -2.3060 ha         1 UNL       0.142000
    103 H49         -6.7370    -1.2430    -1.0950 ha         1 UNL       0.140500
    104 H50         -8.4260    -0.5760    -2.7210 ha         1 UNL       0.149750
@<TRIPOS>BOND
     1     1     2 2   
     2     1    55 1   
     3     1    56 1   
     4     2     3 1   
     5     2    57 1   
     6     3     4 1   
     7     3    58 1   
     8     3    59 1   
     9     4     5 1   
    10     5     6 1   
    11     5    60 1   
    12     5    61 1   
    13     6     7 1   
    14     6    62 1   
    15     6    63 1   
    16     7     8 1   
    17     8     9 1   
    18     8    64 1   
    19     8    65 1   
    20     9    10 1   
    21     9    66 1   
    22     9    67 1   
    23    10    11 1   
    24    11    12 1   
    25    11    68 1   
    26    11    69 1   
    27    12    13 1   
    28    12    70 1   
    29    12    71 1   
    30    13    14 1   
    31    14    15 ar  
    32    14    54 ar  
    33    15    16 ar  
    34    15    72 1   
    35    16    17 ar  
    36    16    73 1   
    37    17    18 1   
    38    17    53 ar  
    39    18    19 ar  
    40    18    50 ar  
    41    19    20 ar  
    42    19    74 1   
    43    20    21 ar  
    44    20    75 1   
    45    21    22 ar  
    46    21    51 ar  
    47    22    23 ar  
    48    22    76 1   
    49    23    24 ar  
    50    23    77 1   
    51    24    25 ar  
    52    24    52 ar  
    53    25    26 1   
    54    25    45 ar  
    55    26    27 ar  
    56    26    44 ar  
    57    27    28 ar  
    58    27    78 1   
    59    28    29 ar  
    60    28    79 1   
    61    29    30 1   
    62    29    43 ar  
    63    30    31 1   
    64    31    32 1   
    65    31    80 1   
    66    31    81 1   
    67    32    33 1   
    68    32    82 1   
    69    32    83 1   
    70    33    34 1   
    71    34    35 1   
    72    34    84 1   
    73    34    85 1   
    74    35    36 1   
    75    35    86 1   
    76    35    87 1   
    77    36    37 1   
    78    37    38 1   
    79    37    88 1   
    80    37    89 1   
    81    38    39 1   
    82    38    90 1   
    83    38    91 1   
    84    39    40 1   
    85    40    41 1   
    86    40    92 1   
    87    40    93 1   
    88    41    42 2   
    89    41    94 1   
    90    42    95 1   
    91    42    96 1   
    92    43    44 ar  
    93    43    97 1   
    94    44    98 1   
    95    45    46 ar  
    96    45    99 1   
    97    46    47 ar  
    98    46   100 1   
    99    47    48 ar  
   100    47    52 ar  
   101    48    49 ar  
   102    48   101 1   
   103    49    50 ar  
   104    49   102 1   
   105    50    51 ar  
   106    51    52 ar  
   107    53    54 ar  
   108    53   103 1   
   109    54   104 1   
@<TRIPOS>SUBSTRUCTURE
     1 UNL         1 TEMP              0 ****  ****    0 ROOT
