@<TRIPOS>MOLECULE
UNL
  104   109     1     0     0
SMALL
bcc


@<TRIPOS>ATOM
      1 C1          -2.3790    -4.3790    -6.4410 c2         1 UNL      -0.206000
      2 C2          -1.9050    -4.9240    -5.3120 c2         1 UNL      -0.195200
      3 C3          -1.2760    -6.2810    -5.1630 c3         1 UNL       0.153100
      4 O1          -1.2210    -6.9480    -6.4210 os         1 UNL      -0.420100
      5 C4          -0.3480    -8.0830    -6.4280 c3         1 UNL       0.098400
      6 C5          -0.8890    -9.2640    -5.6120 c3         1 UNL       0.105900
      7 O2          -0.7140    -9.1000    -4.2000 os         1 UNL      -0.419100
      8 C6           0.6110    -9.4020    -3.7590 c3         1 UNL       0.109400
      9 C7           0.6640    -9.3150    -2.2340 c3         1 UNL       0.106900
     10 O3           1.9250    -9.6840    -1.6760 os         1 UNL      -0.427100
     11 C8           3.0330    -8.8380    -1.9980 c3         1 UNL       0.110900
     12 C9           2.9120    -7.4070    -1.4610 c3         1 UNL       0.108900
     13 O4           2.1190    -6.6310    -2.3700 os         1 UNL      -0.335400
     14 C10          1.7980    -5.4070    -1.8490 ca         1 UNL       0.126100
     15 C11          0.4460    -5.0850    -1.7480 ca         1 UNL      -0.181000
     16 C12          0.0580    -3.8380    -1.2500 ca         1 UNL      -0.086750
     17 C13          1.0180    -2.8940    -0.8570 cp         1 UNL      -0.077500
     18 C14          0.6120    -1.5770    -0.3360 cp         1 UNL      -0.017000
     19 C15          0.1400    -0.6240    -1.2530 ca         1 UNL      -0.119000
     20 C16         -0.2300     0.6500    -0.8350 ca         1 UNL      -0.117500
     21 C17         -0.1290     1.0110     0.5110 ca         1 UNL      -0.033000
     22 C18         -0.4840     2.2950     0.9210 ca         1 UNL      -0.120000
     23 C19         -0.3670     2.6690     2.2600 ca         1 UNL      -0.114500
     24 C20          0.1060     1.7760     3.2450 ca         1 UNL      -0.020500
     25 C21          0.2530     2.1370     4.6160 cp         1 UNL      -0.017000
     26 C22         -0.0060     3.5020     5.1010 cp         1 UNL      -0.077500
     27 C23          0.9330     4.5200     4.8770 ca         1 UNL      -0.086750
     28 C24          0.6830     5.8340     5.2880 ca         1 UNL      -0.181000
     29 C25         -0.5140     6.1500     5.9290 ca         1 UNL       0.126100
     30 O5          -0.8940     7.4010     6.3370 os         1 UNL      -0.335400
     31 C26         -0.2580     8.5190     5.7100 c3         1 UNL       0.108900
     32 C27         -0.7620     8.7350     4.2830 c3         1 UNL       0.110900
     33 O6           0.0830     9.6680     3.6080 os         1 UNL      -0.427100
     34 C28         -0.3740     9.9160     2.2760 c3         1 UNL       0.106900
     35 C29          0.7010    10.6800     1.5050 c3         1 UNL       0.109400
     36 O7           0.3120    11.0890     0.1950 os         1 UNL      -0.419100
     37 C30         -0.0930    10.0540    -0.6980 c3         1 UNL       0.105900
     38 C31          0.9860     9.0130    -0.9910 c3         1 UNL       0.098400
     39 O8           0.4680     8.0710    -1.9330 os         1 UNL      -0.420100
     40 C32          1.3610     6.9830    -2.1660 c3         1 UNL       0.153100
     41 C33          1.0930     5.9130    -1.1540 c2         1 UNL      -0.195200
     42 C34          2.0080     5.3970    -0.3230 c2         1 UNL      -0.206000
     43 C35         -1.4360     5.1350     6.1950 ca         1 UNL      -0.181000
     44 C36         -1.1880     3.8220     5.7800 ca         1 UNL      -0.086750
     45 C37          0.6970     1.1780     5.5400 ca         1 UNL      -0.119000
     46 C38          1.0130    -0.1140     5.1300 ca         1 UNL      -0.117500
     47 C39          0.9020    -0.4800     3.7850 ca         1 UNL      -0.033000
     48 C40          1.2360    -1.7720     3.3750 ca         1 UNL      -0.120000
     49 C41          1.1380    -2.1370     2.0320 ca         1 UNL      -0.114500
     50 C42          0.7010    -1.2330     1.0430 ca         1 UNL      -0.020500
     51 C43          0.3370     0.0750     1.4630 ca         1 UNL      -0.015500
     52 C44          0.4450     0.4600     2.8320 ca         1 UNL      -0.015500
     53 C45          2.3760    -3.2240    -0.9940 ca         1 UNL      -0.086750
     54 C46          2.7650    -4.4720    -1.4900 ca         1 UNL      -0.181000
     55 H1          -2.3410    -4.9150    -7.3860 ha         1 UNL       0.117500
     56 H2          -2.8170    -3.3870    -6.4410 ha         1 UNL       0.117500
     57 H3          -1.9720    -4.3440    -4.3940 ha         1 UNL       0.125000
     58 H4          -0.2660    -6.1550    -4.7560 h1         1 UNL       0.053200
     59 H5          -1.8780    -6.8670    -4.4630 h1         1 UNL       0.053200
     60 H6           0.6530    -7.7740    -6.1100 h1         1 UNL       0.044700
     61 H7          -0.2750    -8.3940    -7.4750 h1         1 UNL       0.044700
     62 H8          -1.9660    -9.3560    -5.7840 h1         1 UNL       0.060950
     63 H9          -0.4180   -10.2030    -5.9320 h1         1 UNL       0.060950
     64 H10          1.3160    -8.6990    -4.2060 h1         1 UNL       0.049200
     65 H11          0.8970   -10.4130    -4.0710 h1         1 UNL       0.049200
     66 H12         -0.0760   -10.0120    -1.8230 h1         1 UNL       0.054950
     67 H13          0.3490    -8.3320    -1.8750 h1         1 UNL       0.054950
     68 H14          3.9010    -9.3040    -1.5180 h1         1 UNL       0.055450
     69 H15          3.2180    -8.8540    -3.0780 h1         1 UNL       0.055450
     70 H16          2.4490    -7.4180    -0.4660 h1         1 UNL       0.062700
     71 H17          3.9170    -6.9760    -1.4060 h1         1 UNL       0.062700
     72 H18         -0.3100    -5.8040    -2.0490 ha         1 UNL       0.150000
     73 H19         -1.0010    -3.6040    -1.1690 ha         1 UNL       0.140500
     74 H20          0.0670    -0.8740    -2.3100 ha         1 UNL       0.138000
     75 H21         -0.5890     1.3610    -1.5760 ha         1 UNL       0.135500
     76 H22         -0.8540     3.0250     0.2040 ha         1 UNL       0.134000
     77 H23         -0.6610     3.6830     2.5260 ha         1 UNL       0.143500
     78 H24          1.8680     4.2960     4.3670 ha         1 UNL       0.140500
     79 H25          1.4440     6.5800     5.0870 ha         1 UNL       0.150000
     80 H26         -0.5160     9.4050     6.3010 h1         1 UNL       0.062700
     81 H27          0.8340     8.4620     5.7730 h1         1 UNL       0.062700
     82 H28         -0.7680     7.7920     3.7250 h1         1 UNL       0.055450
     83 H29         -1.7920     9.1130     4.3070 h1         1 UNL       0.055450
     84 H30         -0.5830     8.9630     1.7780 h1         1 UNL       0.054950
     85 H31         -1.3040    10.4950     2.3040 h1         1 UNL       0.054950
     86 H32          0.9520    11.5920     2.0590 h1         1 UNL       0.049200
     87 H33          1.6340    10.1070     1.4600 h1         1 UNL       0.049200
     88 H34         -0.3760    10.5410    -1.6390 h1         1 UNL       0.060950
     89 H35         -1.0120     9.5800    -0.3380 h1         1 UNL       0.060950
     90 H36          1.2810     8.4970    -0.0710 h1         1 UNL       0.044700
     91 H37          1.8760     9.5040    -1.4040 h1         1 UNL       0.044700
     92 H38          1.1310     6.5840    -3.1590 h1         1 UNL       0.053200
     93 H39          2.4050     7.3210    -2.1770 h1         1 UNL       0.053200
     94 H40          0.0710     5.5450    -1.1140 ha         1 UNL       0.125000
     95 H41          1.7420     4.6190     0.3850 ha         1 UNL       0.117500
     96 H42          3.0390     5.7340    -0.3290 ha         1 UNL       0.117500
     97 H43         -2.3640     5.3690     6.7100 ha         1 UNL       0.150000
     98 H44         -1.9320     3.0520     5.9740 ha         1 UNL       0.140500
     99 H45          0.8120     1.4430     6.5910 ha         1 UNL       0.138000
    100 H46          1.3620    -0.8280     5.8720 ha         1 UNL       0.135500
    101 H47          1.5830    -2.5100     4.0950 ha         1 UNL       0.134000
    102 H48          1.4100    -3.1570     1.7690 ha         1 UNL       0.143500
    103 H49          3.1420    -2.5000    -0.7190 ha         1 UNL       0.140500
    104 H50          3.8220    -4.6890    -1.6090 ha         1 UNL       0.150000
@<TRIPOS>BOND
     1     1     2 2   
     2     1    55 1   
     3     1    56 1   
     4     2     3 1   
     5     2    57 1   
     6     3     4 1   
     7     3    58 1   
     8     3    59 1   
     9     4     5 1   
    10     5     6 1   
    11     5    60 1   
    12     5    61 1   
    13     6     7 1   
    14     6    62 1   
    15     6    63 1   
    16     7     8 1   
    17     8     9 1   
    18     8    64 1   
    19     8    65 1   
    20     9    10 1   
    21     9    66 1   
    22     9    67 1   
    23    10    11 1   
    24    11    12 1   
    25    11    68 1   
    26    11    69 1   
    27    12    13 1   
    28    12    70 1   
    29    12    71 1   
    30    13    14 1   
    31    14    15 ar  
    32    14    54 ar  
    33    15    16 ar  
    34    15    72 1   
    35    16    17 ar  
    36    16    73 1   
    37    17    18 1   
    38    17    53 ar  
    39    18    19 ar  
    40    18    50 ar  
    41    19    20 ar  
    42    19    74 1   
    43    20    21 ar  
    44    20    75 1   
    45    21    22 ar  
    46    21    51 ar  
    47    22    23 ar  
    48    22    76 1   
    49    23    24 ar  
    50    23    77 1   
    51    24    25 ar  
    52    24    52 ar  
    53    25    26 1   
    54    25    45 ar  
    55    26    27 ar  
    56    26    44 ar  
    57    27    28 ar  
    58    27    78 1   
    59    28    29 ar  
    60    28    79 1   
    61    29    30 1   
    62    29    43 ar  
    63    30    31 1   
    64    31    32 1   
    65    31    80 1   
    66    31    81 1   
    67    32    33 1   
    68    32    82 1   
    69    32    83 1   
    70    33    34 1   
    71    34    35 1   
    72    34    84 1   
    73    34    85 1   
    74    35    36 1   
    75    35    86 1   
    76    35    87 1   
    77    36    37 1   
    78    37    38 1   
    79    37    88 1   
    80    37    89 1   
    81    38    39 1   
    82    38    90 1   
    83    38    91 1   
    84    39    40 1   
    85    40    41 1   
    86    40    92 1   
    87    40    93 1   
    88    41    42 2   
    89    41    94 1   
    90    42    95 1   
    91    42    96 1   
    92    43    44 ar  
    93    43    97 1   
    94    44    98 1   
    95    45    46 ar  
    96    45    99 1   
    97    46    47 ar  
    98    46   100 1   
    99    47    48 ar  
   100    47    52 ar  
   101    48    49 ar  
   102    48   101 1   
   103    49    50 ar  
   104    49   102 1   
   105    50    51 ar  
   106    51    52 ar  
   107    53    54 ar  
   108    53   103 1   
   109    54   104 1   
@<TRIPOS>SUBSTRUCTURE
     1 UNL         1 TEMP              0 ****  ****    0 ROOT
