@<TRIPOS>MOLECULE
UNL
  104   109     1     0     0
SMALL
bcc


@<TRIPOS>ATOM
      1 C1         -11.2230     2.0710     1.7460 c2         1 UNL      -0.223000
      2 C2          -9.9510     1.7170     1.5060 c2         1 UNL      -0.165700
      3 C3          -9.1280     2.2500     0.3750 c3         1 UNL       0.159600
      4 O1          -8.6150     1.1360    -0.3470 os         1 UNL      -0.424600
      5 C4          -7.8410     1.5390    -1.4820 c3         1 UNL       0.112400
      6 C5          -7.4070     0.3090    -2.2850 c3         1 UNL       0.124400
      7 O2          -8.5210    -0.1990    -3.0300 os         1 UNL      -0.428100
      8 C6          -8.1710    -1.1890    -4.0090 c3         1 UNL       0.098900
      9 C7          -7.6260    -2.4980    -3.4180 c3         1 UNL       0.105900
     10 O3          -8.6380    -3.1410    -2.6450 os         1 UNL      -0.416600
     11 C8          -8.1500    -4.2900    -1.9540 c3         1 UNL       0.113400
     12 C9          -8.5820    -4.2090    -0.4870 c3         1 UNL       0.084900
     13 O4          -7.8260    -5.0940     0.3480 os         1 UNL      -0.329400
     14 C10         -6.5780    -4.6930     0.7420 ca         1 UNL       0.129100
     15 C11         -5.9790    -3.4720     0.4400 ca         1 UNL      -0.181000
     16 C12         -4.6770    -3.2050     0.8650 ca         1 UNL      -0.087750
     17 C13         -3.9530    -4.1460     1.6180 cp         1 UNL      -0.079500
     18 C14         -2.5840    -3.8280     2.0490 cp         1 UNL      -0.016500
     19 C15         -2.4150    -3.1670     3.2750 ca         1 UNL      -0.120000
     20 C16         -1.1630    -2.7110     3.6750 ca         1 UNL      -0.116000
     21 C17         -0.0500    -2.8910     2.8460 ca         1 UNL      -0.033000
     22 C18          1.1930    -2.3740     3.2150 ca         1 UNL      -0.118500
     23 C19          2.2970    -2.5050     2.3690 ca         1 UNL      -0.115000
     24 C20          2.2140    -3.1860     1.1390 ca         1 UNL      -0.021000
     25 C21          3.3110    -3.3010     0.2390 cp         1 UNL      -0.016500
     26 C22          4.5640    -2.5580     0.4320 cp         1 UNL      -0.079500
     27 C23          5.6450    -3.0850     1.1460 ca         1 UNL      -0.087750
     28 C24          6.8120    -2.3280     1.3310 ca         1 UNL      -0.181000
     29 C25          6.9000    -1.0270     0.8280 ca         1 UNL       0.129100
     30 O5           8.0660    -0.3630     1.1060 os         1 UNL      -0.329400
     31 C26          8.0530     1.0480     0.8710 c3         1 UNL       0.084900
     32 C27          9.3440     1.6760     1.3920 c3         1 UNL       0.113400
     33 O6           9.3150     3.1080     1.3750 os         1 UNL      -0.416600
     34 C28          9.3190     3.6900     0.0710 c3         1 UNL       0.105900
     35 C29          7.9740     4.3600    -0.2010 c3         1 UNL       0.098900
     36 O7           7.9430     4.8550    -1.5390 os         1 UNL      -0.428100
     37 C30          6.7510     5.5920    -1.8150 c3         1 UNL       0.124400
     38 C31          6.9320     7.0740    -1.4920 c3         1 UNL       0.112400
     39 O8           5.6970     7.7540    -1.6980 os         1 UNL      -0.424600
     40 C32          5.8290     9.1490    -1.4300 c3         1 UNL       0.159600
     41 C33          4.4750     9.7640    -1.5700 c2         1 UNL      -0.165700
     42 C34          4.1840    10.7960    -2.3730 c2         1 UNL      -0.223000
     43 C35          5.8320    -0.5060     0.0960 ca         1 UNL      -0.181000
     44 C36          4.6790    -1.2670    -0.1020 ca         1 UNL      -0.087750
     45 C37          3.1660    -4.0530    -0.9370 ca         1 UNL      -0.120000
     46 C38          1.9490    -4.6490    -1.2570 ca         1 UNL      -0.116000
     47 C39          0.8380    -4.4790    -0.4280 ca         1 UNL      -0.033000
     48 C40         -0.4060    -4.9990    -0.7970 ca         1 UNL      -0.118500
     49 C41         -1.5270    -4.7820     0.0040 ca         1 UNL      -0.115000
     50 C42         -1.4480    -4.0790     1.2250 ca         1 UNL      -0.021000
     51 C43         -0.1780    -3.5860     1.6200 ca         1 UNL      -0.015500
     52 C44          0.9640    -3.7560     0.7830 ca         1 UNL      -0.015500
     53 C45         -4.5680    -5.3630     1.9390 ca         1 UNL      -0.087750
     54 C46         -5.8680    -5.6320     1.4960 ca         1 UNL      -0.181000
     55 H1         -11.7660     1.6300     2.5770 ha         1 UNL       0.113500
     56 H2         -11.7500     2.7840     1.1160 ha         1 UNL       0.113500
     57 H3          -9.4700     0.9830     2.1510 ha         1 UNL       0.145000
     58 H4          -8.2990     2.8440     0.7740 h1         1 UNL       0.037200
     59 H5          -9.7280     2.8800    -0.2920 h1         1 UNL       0.037200
     60 H6          -8.4390     2.2080    -2.1120 h1         1 UNL       0.038700
     61 H7          -6.9540     2.0670    -1.1170 h1         1 UNL       0.038700
     62 H8          -6.6050     0.5900    -2.9790 h1         1 UNL       0.051950
     63 H9          -7.0510    -0.4670    -1.5990 h1         1 UNL       0.051950
     64 H10         -7.4380    -0.7580    -4.7050 h1         1 UNL       0.052700
     65 H11         -9.0890    -1.3980    -4.5760 h1         1 UNL       0.052700
     66 H12         -6.7480    -2.3020    -2.7930 h1         1 UNL       0.057200
     67 H13         -7.3300    -3.1750    -4.2290 h1         1 UNL       0.057200
     68 H14         -8.5790    -5.1870    -2.4180 h1         1 UNL       0.060950
     69 H15         -7.0630    -4.3860    -2.0440 h1         1 UNL       0.060950
     70 H16         -8.5790    -3.1880    -0.0950 h1         1 UNL       0.067950
     71 H17         -9.6280    -4.5280    -0.4160 h1         1 UNL       0.067950
     72 H18         -6.4820    -2.6950    -0.1250 ha         1 UNL       0.148500
     73 H19         -4.2220    -2.2470     0.6120 ha         1 UNL       0.140500
     74 H20         -3.2780    -2.9790     3.9100 ha         1 UNL       0.137500
     75 H21         -1.0750    -2.1880     4.6240 ha         1 UNL       0.134500
     76 H22          1.3200    -1.8400     4.1540 ha         1 UNL       0.133000
     77 H23          3.2400    -2.0650     2.6880 ha         1 UNL       0.143000
     78 H24          5.5800    -4.0850     1.5680 ha         1 UNL       0.140500
     79 H25          7.6470    -2.7570     1.8890 ha         1 UNL       0.148500
     80 H26          7.2030     1.5170     1.3820 h1         1 UNL       0.067950
     81 H27          7.9700     1.2430    -0.2040 h1         1 UNL       0.067950
     82 H28         10.2150     1.3080     0.8340 h1         1 UNL       0.060950
     83 H29          9.4940     1.3690     2.4330 h1         1 UNL       0.060950
     84 H30         10.1030     4.4580     0.0510 h1         1 UNL       0.057200
     85 H31          9.5740     2.9660    -0.7120 h1         1 UNL       0.057200
     86 H32          7.8110     5.1710     0.5240 h1         1 UNL       0.052700
     87 H33          7.1600     3.6420    -0.0640 h1         1 UNL       0.052700
     88 H34          5.8850     5.1750    -1.2840 h1         1 UNL       0.051950
     89 H35          6.5340     5.4880    -2.8850 h1         1 UNL       0.051950
     90 H36          7.2510     7.2020    -0.4500 h1         1 UNL       0.038700
     91 H37          7.7120     7.5050    -2.1360 h1         1 UNL       0.038700
     92 H38          6.5480     9.5880    -2.1260 h1         1 UNL       0.037200
     93 H39          6.1770     9.3020    -0.4040 h1         1 UNL       0.037200
     94 H40          3.6820     9.3210    -0.9720 ha         1 UNL       0.145000
     95 H41          3.1710    11.1850    -2.4190 ha         1 UNL       0.113500
     96 H42          4.9370    11.2720    -2.9950 ha         1 UNL       0.113500
     97 H43          5.8630     0.4880    -0.3340 ha         1 UNL       0.148500
     98 H44          3.8530    -0.8390    -0.6680 ha         1 UNL       0.140500
     99 H45          4.0030    -4.1490    -1.6260 ha         1 UNL       0.137500
    100 H46          1.8720    -5.2160    -2.1780 ha         1 UNL       0.134500
    101 H47         -0.5250    -5.5540    -1.7270 ha         1 UNL       0.133000
    102 H48         -2.4780    -5.1810    -0.3390 ha         1 UNL       0.143000
    103 H49         -4.0360    -6.1110     2.5250 ha         1 UNL       0.140500
    104 H50         -6.3340    -6.5830     1.7460 ha         1 UNL       0.148500
@<TRIPOS>BOND
     1     1     2 2   
     2     1    55 1   
     3     1    56 1   
     4     2     3 1   
     5     2    57 1   
     6     3     4 1   
     7     3    58 1   
     8     3    59 1   
     9     4     5 1   
    10     5     6 1   
    11     5    60 1   
    12     5    61 1   
    13     6     7 1   
    14     6    62 1   
    15     6    63 1   
    16     7     8 1   
    17     8     9 1   
    18     8    64 1   
    19     8    65 1   
    20     9    10 1   
    21     9    66 1   
    22     9    67 1   
    23    10    11 1   
    24    11    12 1   
    25    11    68 1   
    26    11    69 1   
    27    12    13 1   
    28    12    70 1   
    29    12    71 1   
    30    13    14 1   
    31    14    15 ar  
    32    14    54 ar  
    33    15    16 ar  
    34    15    72 1   
    35    16    17 ar  
    36    16    73 1   
    37    17    18 1   
    38    17    53 ar  
    39    18    19 ar  
    40    18    50 ar  
    41    19    20 ar  
    42    19    74 1   
    43    20    21 ar  
    44    20    75 1   
    45    21    22 ar  
    46    21    51 ar  
    47    22    23 ar  
    48    22    76 1   
    49    23    24 ar  
    50    23    77 1   
    51    24    25 ar  
    52    24    52 ar  
    53    25    26 1   
    54    25    45 ar  
    55    26    27 ar  
    56    26    44 ar  
    57    27    28 ar  
    58    27    78 1   
    59    28    29 ar  
    60    28    79 1   
    61    29    30 1   
    62    29    43 ar  
    63    30    31 1   
    64    31    32 1   
    65    31    80 1   
    66    31    81 1   
    67    32    33 1   
    68    32    82 1   
    69    32    83 1   
    70    33    34 1   
    71    34    35 1   
    72    34    84 1   
    73    34    85 1   
    74    35    36 1   
    75    35    86 1   
    76    35    87 1   
    77    36    37 1   
    78    37    38 1   
    79    37    88 1   
    80    37    89 1   
    81    38    39 1   
    82    38    90 1   
    83    38    91 1   
    84    39    40 1   
    85    40    41 1   
    86    40    92 1   
    87    40    93 1   
    88    41    42 2   
    89    41    94 1   
    90    42    95 1   
    91    42    96 1   
    92    43    44 ar  
    93    43    97 1   
    94    44    98 1   
    95    45    46 ar  
    96    45    99 1   
    97    46    47 ar  
    98    46   100 1   
    99    47    48 ar  
   100    47    52 ar  
   101    48    49 ar  
   102    48   101 1   
   103    49    50 ar  
   104    49   102 1   
   105    50    51 ar  
   106    51    52 ar  
   107    53    54 ar  
   108    53   103 1   
   109    54   104 1   
@<TRIPOS>SUBSTRUCTURE
     1 UNL         1 TEMP              0 ****  ****    0 ROOT
