MODEL 1
REMARK VINA RESULT:   -18.601      0.000      0.000
REMARK INTER + INTRA:         -23.615
REMARK INTER:                 -22.181
REMARK INTRA:                  -1.434
REMARK CONF_INDEPENDENT:        3.580
REMARK UNBOUND:                -1.434
REMARK SMILES CC[NH2+]Cc1ccc(-c2ccc3ccc4c(-c5ccc(OC)cc5)ccc5ccc2c3c54)cc1
REMARK SMILES IDX 5 1 6 2 7 3 8 4 33 5 34 6 4 7 3 8 2 11 1 12 9 13 10 14 30 15
REMARK SMILES IDX 11 16 29 17 31 18 12 19 28 20 32 21 13 22 27 23 15 24 14 25
REMARK SMILES IDX 26 26 16 27 25 28 17 29 18 30 24 31 19 32 23 33 20 34 21 35
REMARK SMILES IDX 22 36
REMARK H PARENT 3 9 3 10
REMARK Flexibility Score: inf
ROOT
ATOM      1  C   UNL     1       1.165   9.585   3.376  1.00  0.00     0.006 A 
ATOM      2  C   UNL     1       1.729   9.949   2.144  1.00  0.00     0.010 A 
ATOM      3  C   UNL     1       2.412   9.005   1.372  1.00  0.00     0.009 A 
ATOM      4  C   UNL     1       2.549   7.682   1.811  1.00  0.00    -0.018 A 
ATOM      5  C   UNL     1       1.983   7.322   3.043  1.00  0.00     0.009 A 
ATOM      6  C   UNL     1       1.299   8.262   3.819  1.00  0.00     0.010 A 
ENDROOT
BRANCH   1   7
ATOM      7  C   UNL     1       0.404  10.590   4.193  1.00  0.00     0.297 C 
BRANCH   7   8
ATOM      8  N   UNL     1      -0.660  11.292   3.410  1.00  0.00    -0.343 N 
ATOM      9  H   UNL     1      -0.347  11.359   2.435  1.00  0.00     0.346 HD
ATOM     10  H   UNL     1      -1.500  10.700   3.404  1.00  0.00     0.346 HD
BRANCH   8  11
ATOM     11  C   UNL     1      -1.023  12.654   3.907  1.00  0.00     0.257 C 
ATOM     12  C   UNL     1      -0.354  13.691   3.027  1.00  0.00     0.071 C 
ENDBRANCH   8  11
ENDBRANCH   7   8
ENDBRANCH   1   7
BRANCH   4  13
ATOM     13  C   UNL     1       3.270   6.689   0.999  1.00  0.00    -0.010 A 
ATOM     14  C   UNL     1       2.694   5.419   0.842  1.00  0.00     0.010 A 
ATOM     15  C   UNL     1       4.523   6.970   0.381  1.00  0.00    -0.009 A 
ATOM     16  C   UNL     1       3.330   4.431   0.095  1.00  0.00     0.009 A 
ATOM     17  C   UNL     1       5.165   8.221   0.482  1.00  0.00     0.010 A 
ATOM     18  C   UNL     1       5.169   5.955  -0.377  1.00  0.00    -0.002 A 
ATOM     19  C   UNL     1       4.562   4.685  -0.513  1.00  0.00    -0.017 A 
ATOM     20  C   UNL     1       6.393   8.467  -0.131  1.00  0.00     0.009 A 
ATOM     21  C   UNL     1       6.426   6.199  -1.004  1.00  0.00    -0.002 A 
ATOM     22  C   UNL     1       5.199   3.690  -1.256  1.00  0.00     0.009 A 
ATOM     23  C   UNL     1       7.032   7.470  -0.871  1.00  0.00    -0.017 A 
ATOM     24  C   UNL     1       7.075   5.182  -1.756  1.00  0.00    -0.009 A 
ATOM     25  C   UNL     1       6.431   3.934  -1.864  1.00  0.00     0.010 A 
ATOM     26  C   UNL     1       8.264   7.723  -1.480  1.00  0.00     0.009 A 
ATOM     27  C   UNL     1       8.332   5.457  -2.365  1.00  0.00    -0.010 A 
ATOM     28  C   UNL     1       8.905   6.730  -2.215  1.00  0.00     0.010 A 
BRANCH  27  29
ATOM     29  C   UNL     1       9.071   4.456  -3.151  1.00  0.00    -0.018 A 
ATOM     30  C   UNL     1       8.403   3.624  -4.059  1.00  0.00     0.012 A 
ATOM     31  C   UNL     1      10.457   4.306  -3.000  1.00  0.00     0.012 A 
ATOM     32  C   UNL     1       9.109   2.670  -4.798  1.00  0.00     0.047 A 
ATOM     33  C   UNL     1      11.162   3.350  -3.739  1.00  0.00     0.047 A 
ATOM     34  C   UNL     1      10.490   2.527  -4.643  1.00  0.00     0.118 A 
BRANCH  34  35
ATOM     35  O   UNL     1      11.055   1.556  -5.423  1.00  0.00    -0.497 OA
ATOM     36  C   UNL     1      11.339   0.311  -4.797  1.00  0.00     0.278 C 
ENDBRANCH  34  35
ENDBRANCH  27  29
ENDBRANCH   4  13
TORSDOF 6
REMARK SMILES CC[NH2+]Cc1ccc(-c2ccc3ccc4c(-c5ccc(OC)cc5)ccc5ccc2c3c54)cc1
REMARK SMILES IDX 5 1 6 2 7 3 8 4 33 5 34 6 4 7 3 8 2 11 1 12 9 13 10 14 30 15
REMARK SMILES IDX 11 16 29 17 31 18 12 19 28 20 32 21 13 22 27 23 15 24 14 25
REMARK SMILES IDX 26 26 16 27 25 28 17 29 18 30 24 31 19 32 23 33 20 34 21 35
REMARK SMILES IDX 22 36
REMARK H PARENT 3 9 3 10
REMARK Flexibility Score: inf
ROOT
ATOM      1  C   UNL     1       9.654   4.895  -7.335  1.00  0.00     0.006 A 
ATOM      2  C   UNL     1       8.272   4.803  -7.556  1.00  0.00     0.010 A 
ATOM      3  C   UNL     1       7.382   5.566  -6.795  1.00  0.00     0.009 A 
ATOM      4  C   UNL     1       7.850   6.435  -5.800  1.00  0.00    -0.018 A 
ATOM      5  C   UNL     1       9.232   6.525  -5.584  1.00  0.00     0.009 A 
ATOM      6  C   UNL     1      10.127   5.763  -6.340  1.00  0.00     0.010 A 
ENDROOT
BRANCH   1   7
ATOM      7  C   UNL     1      10.615   4.098  -8.172  1.00  0.00     0.297 C 
BRANCH   7   8
ATOM      8  N   UNL     1      10.676   2.657  -7.777  1.00  0.00    -0.343 N 
ATOM      9  H   UNL     1      11.591   2.483  -7.343  1.00  0.00     0.346 HD
ATOM     10  H   UNL     1       9.974   2.493  -7.044  1.00  0.00     0.346 HD
BRANCH   8  11
ATOM     11  C   UNL     1      10.463   1.681  -8.889  1.00  0.00     0.257 C 
ATOM     12  C   UNL     1       9.387   0.696  -8.477  1.00  0.00     0.071 C 
ENDBRANCH   8  11
ENDBRANCH   7   8
ENDBRANCH   1   7
BRANCH   4  13
ATOM     13  C   UNL     1       6.911   7.236  -4.998  1.00  0.00    -0.010 A 
ATOM     14  C   UNL     1       7.247   8.572  -4.728  1.00  0.00     0.010 A 
ATOM     15  C   UNL     1       5.692   6.705  -4.487  1.00  0.00    -0.009 A 
ATOM     16  C   UNL     1       6.409   9.381  -3.966  1.00  0.00     0.009 A 
ATOM     17  C   UNL     1       5.277   5.377  -4.719  1.00  0.00     0.010 A 
ATOM     18  C   UNL     1       4.843   7.536  -3.707  1.00  0.00    -0.002 A 
ATOM     19  C   UNL     1       5.212   8.877  -3.451  1.00  0.00    -0.017 A 
ATOM     20  C   UNL     1       4.080   4.882  -4.204  1.00  0.00     0.009 A 
ATOM     21  C   UNL     1       3.619   7.035  -3.174  1.00  0.00    -0.002 A 
ATOM     22  C   UNL     1       4.377   9.689  -2.682  1.00  0.00     0.009 A 
ATOM     23  C   UNL     1       3.247   5.695  -3.433  1.00  0.00    -0.017 A 
ATOM     24  C   UNL     1       2.772   7.863  -2.388  1.00  0.00    -0.009 A 
ATOM     25  C   UNL     1       3.182   9.192  -2.162  1.00  0.00     0.010 A 
ATOM     26  C   UNL     1       2.049   5.190  -2.917  1.00  0.00     0.009 A 
ATOM     27  C   UNL     1       1.560   7.331  -1.868  1.00  0.00    -0.010 A 
ATOM     28  C   UNL     1       1.219   5.997  -2.144  1.00  0.00     0.010 A 
BRANCH  27  29
ATOM     29  C   UNL     1       0.635   8.120  -1.038  1.00  0.00    -0.018 A 
ATOM     30  C   UNL     1       0.475   9.495  -1.256  1.00  0.00     0.012 A 
ATOM     31  C   UNL     1      -0.096   7.517  -0.005  1.00  0.00     0.012 A 
ATOM     32  C   UNL     1      -0.399  10.242  -0.460  1.00  0.00     0.047 A 
ATOM     33  C   UNL     1      -0.970   8.266   0.791  1.00  0.00     0.047 A 
ATOM     34  C   UNL     1      -1.125   9.634   0.566  1.00  0.00     0.118 A 
BRANCH  34  35
ATOM     35  O   UNL     1      -1.940  10.479   1.267  1.00  0.00    -0.497 OA
ATOM     36  C   UNL     1      -2.897  11.219   0.519  1.00  0.00     0.278 C 
ENDBRANCH  34  35
ENDBRANCH  27  29
ENDBRANCH   4  13
TORSDOF 6
ENDMDL
MODEL 2
REMARK VINA RESULT:   -18.570      0.095     11.450
REMARK INTER + INTRA:         -23.639
REMARK INTER:                 -22.150
REMARK INTRA:                  -1.490
REMARK CONF_INDEPENDENT:        3.580
REMARK UNBOUND:                -1.490
REMARK SMILES CC[NH2+]Cc1ccc(-c2ccc3ccc4c(-c5ccc(OC)cc5)ccc5ccc2c3c54)cc1
REMARK SMILES IDX 5 1 6 2 7 3 8 4 33 5 34 6 4 7 3 8 2 11 1 12 9 13 10 14 30 15
REMARK SMILES IDX 11 16 29 17 31 18 12 19 28 20 32 21 13 22 27 23 15 24 14 25
REMARK SMILES IDX 26 26 16 27 25 28 17 29 18 30 24 31 19 32 23 33 20 34 21 35
REMARK SMILES IDX 22 36
REMARK H PARENT 3 9 3 10
REMARK Flexibility Score: inf
ROOT
ATOM      1  C   UNL     1       9.626   4.948  -7.428  1.00  0.00     0.006 A 
ATOM      2  C   UNL     1      10.105   5.774  -6.399  1.00  0.00     0.010 A 
ATOM      3  C   UNL     1       9.217   6.524  -5.623  1.00  0.00     0.009 A 
ATOM      4  C   UNL     1       7.836   6.468  -5.855  1.00  0.00    -0.018 A 
ATOM      5  C   UNL     1       7.361   5.640  -6.882  1.00  0.00     0.009 A 
ATOM      6  C   UNL     1       8.244   4.889  -7.663  1.00  0.00     0.010 A 
ENDROOT
BRANCH   1   7
ATOM      7  C   UNL     1      10.575   4.118  -8.244  1.00  0.00     0.297 C 
BRANCH   7   8
ATOM      8  N   UNL     1      10.701   2.714  -7.742  1.00  0.00    -0.343 N 
ATOM      9  H   UNL     1      11.570   2.647  -7.198  1.00  0.00     0.346 HD
ATOM     10  H   UNL     1       9.933   2.538  -7.082  1.00  0.00     0.346 HD
BRANCH   8  11
ATOM     11  C   UNL     1      10.695   1.656  -8.797  1.00  0.00     0.257 C 
ATOM     12  C   UNL     1       9.374   0.916  -8.743  1.00  0.00     0.071 C 
ENDBRANCH   8  11
ENDBRANCH   7   8
ENDBRANCH   1   7
BRANCH   4  13
ATOM     13  C   UNL     1       6.903   7.259  -5.038  1.00  0.00    -0.010 A 
ATOM     14  C   UNL     1       7.241   8.592  -4.752  1.00  0.00     0.010 A 
ATOM     15  C   UNL     1       5.686   6.722  -4.527  1.00  0.00    -0.009 A 
ATOM     16  C   UNL     1       6.408   9.392  -3.974  1.00  0.00     0.009 A 
ATOM     17  C   UNL     1       5.269   5.399  -4.774  1.00  0.00     0.010 A 
ATOM     18  C   UNL     1       4.842   7.544  -3.731  1.00  0.00    -0.002 A 
ATOM     19  C   UNL     1       5.214   8.881  -3.459  1.00  0.00    -0.017 A 
ATOM     20  C   UNL     1       4.074   4.898  -4.258  1.00  0.00     0.009 A 
ATOM     21  C   UNL     1       3.620   7.037  -3.198  1.00  0.00    -0.002 A 
ATOM     22  C   UNL     1       4.384   9.684  -2.676  1.00  0.00     0.009 A 
ATOM     23  C   UNL     1       3.246   5.701  -3.472  1.00  0.00    -0.017 A 
ATOM     24  C   UNL     1       2.778   7.856  -2.397  1.00  0.00    -0.009 A 
ATOM     25  C   UNL     1       3.191   9.181  -2.155  1.00  0.00     0.010 A 
ATOM     26  C   UNL     1       2.050   5.191  -2.956  1.00  0.00     0.009 A 
ATOM     27  C   UNL     1       1.569   7.318  -1.876  1.00  0.00    -0.010 A 
ATOM     28  C   UNL     1       1.225   5.988  -2.169  1.00  0.00     0.010 A 
BRANCH  27  29
ATOM     29  C   UNL     1       0.650   8.097  -1.031  1.00  0.00    -0.018 A 
ATOM     30  C   UNL     1       0.484   9.474  -1.234  1.00  0.00     0.012 A 
ATOM     31  C   UNL     1      -0.071   7.482   0.003  1.00  0.00     0.012 A 
ATOM     32  C   UNL     1      -0.385  10.211  -0.425  1.00  0.00     0.047 A 
ATOM     33  C   UNL     1      -0.940   8.222   0.813  1.00  0.00     0.047 A 
ATOM     34  C   UNL     1      -1.100   9.591   0.602  1.00  0.00     0.118 A 
BRANCH  34  35
ATOM     35  O   UNL     1      -1.911  10.427   1.319  1.00  0.00    -0.497 OA
ATOM     36  C   UNL     1      -2.752  11.302   0.576  1.00  0.00     0.278 C 
ENDBRANCH  34  35
ENDBRANCH  27  29
ENDBRANCH   4  13
TORSDOF 6
REMARK SMILES CC[NH2+]Cc1ccc(-c2ccc3ccc4c(-c5ccc(OC)cc5)ccc5ccc2c3c54)cc1
REMARK SMILES IDX 5 1 6 2 7 3 8 4 33 5 34 6 4 7 3 8 2 11 1 12 9 13 10 14 30 15
REMARK SMILES IDX 11 16 29 17 31 18 12 19 28 20 32 21 13 22 27 23 15 24 14 25
REMARK SMILES IDX 26 26 16 27 25 28 17 29 18 30 24 31 19 32 23 33 20 34 21 35
REMARK SMILES IDX 22 36
REMARK H PARENT 3 9 3 10
REMARK Flexibility Score: inf
ROOT
ATOM      1  C   UNL     1       1.172   9.613   3.420  1.00  0.00     0.006 A 
ATOM      2  C   UNL     1       1.712   9.968   2.175  1.00  0.00     0.010 A 
ATOM      3  C   UNL     1       2.386   9.019   1.400  1.00  0.00     0.009 A 
ATOM      4  C   UNL     1       2.536   7.700   1.850  1.00  0.00    -0.018 A 
ATOM      5  C   UNL     1       1.992   7.350   3.095  1.00  0.00     0.009 A 
ATOM      6  C   UNL     1       1.319   8.294   3.874  1.00  0.00     0.010 A 
ENDROOT
BRANCH   1   7
ATOM      7  C   UNL     1       0.420  10.623   4.241  1.00  0.00     0.297 C 
BRANCH   7   8
ATOM      8  N   UNL     1      -0.703  11.265   3.490  1.00  0.00    -0.343 N 
ATOM      9  H   UNL     1      -0.398  11.406   2.519  1.00  0.00     0.346 HD
ATOM     10  H   UNL     1      -1.487  10.601   3.453  1.00  0.00     0.346 HD
BRANCH   8  11
ATOM     11  C   UNL     1      -1.186  12.563   4.051  1.00  0.00     0.257 C 
ATOM     12  C   UNL     1      -0.550  13.699   3.274  1.00  0.00     0.071 C 
ENDBRANCH   8  11
ENDBRANCH   7   8
ENDBRANCH   1   7
BRANCH   4  13
ATOM     13  C   UNL     1       3.247   6.703   1.035  1.00  0.00    -0.010 A 
ATOM     14  C   UNL     1       2.666   5.433   0.889  1.00  0.00     0.010 A 
ATOM     15  C   UNL     1       4.494   6.978   0.403  1.00  0.00    -0.009 A 
ATOM     16  C   UNL     1       3.293   4.440   0.141  1.00  0.00     0.009 A 
ATOM     17  C   UNL     1       5.139   8.228   0.493  1.00  0.00     0.010 A 
ATOM     18  C   UNL     1       5.130   5.958  -0.357  1.00  0.00    -0.002 A 
ATOM     19  C   UNL     1       4.520   4.689  -0.481  1.00  0.00    -0.017 A 
ATOM     20  C   UNL     1       6.362   8.469  -0.134  1.00  0.00     0.009 A 
ATOM     21  C   UNL     1       6.381   6.197  -0.997  1.00  0.00    -0.002 A 
ATOM     22  C   UNL     1       5.148   3.690  -1.225  1.00  0.00     0.009 A 
ATOM     23  C   UNL     1       6.991   7.468  -0.876  1.00  0.00    -0.017 A 
ATOM     24  C   UNL     1       7.021   5.176  -1.751  1.00  0.00    -0.009 A 
ATOM     25  C   UNL     1       6.373   3.929  -1.847  1.00  0.00     0.010 A 
ATOM     26  C   UNL     1       8.218   7.716  -1.499  1.00  0.00     0.009 A 
ATOM     27  C   UNL     1       8.272   5.446  -2.374  1.00  0.00    -0.010 A 
ATOM     28  C   UNL     1       8.849   6.719  -2.235  1.00  0.00     0.010 A 
BRANCH  27  29
ATOM     29  C   UNL     1       9.002   4.440  -3.162  1.00  0.00    -0.018 A 
ATOM     30  C   UNL     1       8.332   3.642  -4.100  1.00  0.00     0.012 A 
ATOM     31  C   UNL     1      10.380   4.250  -2.985  1.00  0.00     0.012 A 
ATOM     32  C   UNL     1       9.029   2.683  -4.841  1.00  0.00     0.047 A 
ATOM     33  C   UNL     1      11.076   3.289  -3.727  1.00  0.00     0.047 A 
ATOM     34  C   UNL     1      10.401   2.501  -4.660  1.00  0.00     0.118 A 
BRANCH  34  35
ATOM     35  O   UNL     1      10.957   1.530  -5.446  1.00  0.00    -0.497 OA
ATOM     36  C   UNL     1      11.237   0.281  -4.826  1.00  0.00     0.278 C 
ENDBRANCH  34  35
ENDBRANCH  27  29
ENDBRANCH   4  13
TORSDOF 6
ENDMDL
MODEL 3
REMARK VINA RESULT:   -18.110      1.543      2.334
REMARK INTER + INTRA:         -23.469
REMARK INTER:                 -21.689
REMARK INTRA:                  -1.779
REMARK CONF_INDEPENDENT:        3.580
REMARK UNBOUND:                -1.779
REMARK SMILES CC[NH2+]Cc1ccc(-c2ccc3ccc4c(-c5ccc(OC)cc5)ccc5ccc2c3c54)cc1
REMARK SMILES IDX 5 1 6 2 7 3 8 4 33 5 34 6 4 7 3 8 2 11 1 12 9 13 10 14 30 15
REMARK SMILES IDX 11 16 29 17 31 18 12 19 28 20 32 21 13 22 27 23 15 24 14 25
REMARK SMILES IDX 26 26 16 27 25 28 17 29 18 30 24 31 19 32 23 33 20 34 21 35
REMARK SMILES IDX 22 36
REMARK H PARENT 3 9 3 10
REMARK Flexibility Score: inf
ROOT
ATOM      1  C   UNL     1      -0.014   8.933   4.259  1.00  0.00     0.006 A 
ATOM      2  C   UNL     1      -0.658   8.289   3.192  1.00  0.00     0.010 A 
ATOM      3  C   UNL     1       0.061   7.453   2.332  1.00  0.00     0.009 A 
ATOM      4  C   UNL     1       1.435   7.244   2.517  1.00  0.00    -0.018 A 
ATOM      5  C   UNL     1       2.074   7.889   3.586  1.00  0.00     0.009 A 
ATOM      6  C   UNL     1       1.360   8.726   4.448  1.00  0.00     0.010 A 
ENDROOT
BRANCH   1   7
ATOM      7  C   UNL     1      -0.791   9.807   5.203  1.00  0.00     0.297 C 
BRANCH   7   8
ATOM      8  N   UNL     1      -0.849  11.235   4.760  1.00  0.00    -0.343 N 
ATOM      9  H   UNL     1       0.113  11.565   4.619  1.00  0.00     0.346 HD
ATOM     10  H   UNL     1      -1.304  11.269   3.839  1.00  0.00     0.346 HD
BRANCH   8  11
ATOM     11  C   UNL     1      -1.558  12.163   5.692  1.00  0.00     0.257 C 
ATOM     12  C   UNL     1      -3.048  12.078   5.430  1.00  0.00     0.071 C 
ENDBRANCH   8  11
ENDBRANCH   7   8
ENDBRANCH   1   7
BRANCH   4  13
ATOM     13  C   UNL     1       2.191   6.367   1.610  1.00  0.00    -0.010 A 
ATOM     14  C   UNL     1       1.599   5.156   1.216  1.00  0.00     0.010 A 
ATOM     15  C   UNL     1       3.492   6.696   1.133  1.00  0.00    -0.009 A 
ATOM     16  C   UNL     1       2.266   4.275   0.369  1.00  0.00     0.009 A 
ATOM     17  C   UNL     1       4.154   7.894   1.474  1.00  0.00     0.010 A 
ATOM     18  C   UNL     1       4.169   5.790   0.271  1.00  0.00    -0.002 A 
ATOM     19  C   UNL     1       3.545   4.578  -0.105  1.00  0.00    -0.017 A 
ATOM     20  C   UNL     1       5.429   8.190   0.994  1.00  0.00     0.009 A 
ATOM     21  C   UNL     1       5.474   6.086  -0.221  1.00  0.00    -0.002 A 
ATOM     22  C   UNL     1       4.212   3.690  -0.950  1.00  0.00     0.009 A 
ATOM     23  C   UNL     1       6.097   7.299   0.152  1.00  0.00    -0.017 A 
ATOM     24  C   UNL     1       6.154   5.177  -1.077  1.00  0.00    -0.009 A 
ATOM     25  C   UNL     1       5.490   3.984  -1.425  1.00  0.00     0.010 A 
ATOM     26  C   UNL     1       7.377   7.602  -0.323  1.00  0.00     0.009 A 
ATOM     27  C   UNL     1       7.457   5.500  -1.547  1.00  0.00    -0.010 A 
ATOM     28  C   UNL     1       8.047   6.714  -1.159  1.00  0.00     0.010 A 
BRANCH  27  29
ATOM     29  C   UNL     1       8.229   4.609  -2.427  1.00  0.00    -0.018 A 
ATOM     30  C   UNL     1       8.890   5.113  -3.555  1.00  0.00     0.012 A 
ATOM     31  C   UNL     1       8.311   3.234  -2.163  1.00  0.00     0.012 A 
ATOM     32  C   UNL     1       9.617   4.261  -4.392  1.00  0.00     0.047 A 
ATOM     33  C   UNL     1       9.038   2.381  -3.003  1.00  0.00     0.047 A 
ATOM     34  C   UNL     1       9.694   2.893  -4.122  1.00  0.00     0.118 A 
BRANCH  34  35
ATOM     35  O   UNL     1      10.434   2.175  -5.021  1.00  0.00    -0.497 OA
ATOM     36  C   UNL     1      10.319   2.544  -6.390  1.00  0.00     0.278 C 
ENDBRANCH  34  35
ENDBRANCH  27  29
ENDBRANCH   4  13
TORSDOF 6
REMARK SMILES CC[NH2+]Cc1ccc(-c2ccc3ccc4c(-c5ccc(OC)cc5)ccc5ccc2c3c54)cc1
REMARK SMILES IDX 5 1 6 2 7 3 8 4 33 5 34 6 4 7 3 8 2 11 1 12 9 13 10 14 30 15
REMARK SMILES IDX 11 16 29 17 31 18 12 19 28 20 32 21 13 22 27 23 15 24 14 25
REMARK SMILES IDX 26 26 16 27 25 28 17 29 18 30 24 31 19 32 23 33 20 34 21 35
REMARK SMILES IDX 22 36
REMARK H PARENT 3 9 3 10
REMARK Flexibility Score: inf
ROOT
ATOM      1  C   UNL     1       6.560   2.850  -7.000  1.00  0.00     0.006 A 
ATOM      2  C   UNL     1       6.227   4.095  -7.556  1.00  0.00     0.010 A 
ATOM      3  C   UNL     1       5.873   5.167  -6.730  1.00  0.00     0.009 A 
ATOM      4  C   UNL     1       5.844   5.020  -5.337  1.00  0.00    -0.018 A 
ATOM      5  C   UNL     1       6.179   3.775  -4.786  1.00  0.00     0.009 A 
ATOM      6  C   UNL     1       6.532   2.700  -5.606  1.00  0.00     0.010 A 
ENDROOT
BRANCH   1   7
ATOM      7  C   UNL     1       6.970   1.706  -7.883  1.00  0.00     0.297 C 
BRANCH   7   8
ATOM      8  N   UNL     1       6.180   0.461  -7.628  1.00  0.00    -0.343 N 
ATOM      9  H   UNL     1       6.017   0.389  -6.617  1.00  0.00     0.346 HD
ATOM     10  H   UNL     1       5.255   0.572  -8.062  1.00  0.00     0.346 HD
BRANCH   8  11
ATOM     11  C   UNL     1       6.806  -0.804  -8.120  1.00  0.00     0.257 C 
ATOM     12  C   UNL     1       8.256  -0.532  -8.463  1.00  0.00     0.071 C 
ENDBRANCH   8  11
ENDBRANCH   7   8
ENDBRANCH   1   7
BRANCH   4  13
ATOM     13  C   UNL     1       5.470   6.148  -4.469  1.00  0.00    -0.010 A 
ATOM     14  C   UNL     1       6.388   7.199  -4.320  1.00  0.00     0.010 A 
ATOM     15  C   UNL     1       4.225   6.204  -3.778  1.00  0.00    -0.009 A 
ATOM     16  C   UNL     1       6.101   8.291  -3.504  1.00  0.00     0.009 A 
ATOM     17  C   UNL     1       3.245   5.195  -3.881  1.00  0.00     0.010 A 
ATOM     18  C   UNL     1       3.940   7.319  -2.945  1.00  0.00    -0.002 A 
ATOM     19  C   UNL     1       4.888   8.360  -2.814  1.00  0.00    -0.017 A 
ATOM     20  C   UNL     1       2.036   5.274  -3.191  1.00  0.00     0.009 A 
ATOM     21  C   UNL     1       2.707   7.405  -2.234  1.00  0.00    -0.002 A 
ATOM     22  C   UNL     1       4.606   9.453  -1.993  1.00  0.00     0.009 A 
ATOM     23  C   UNL     1       1.757   6.366  -2.367  1.00  0.00    -0.017 A 
ATOM     24  C   UNL     1       2.424   8.517  -1.395  1.00  0.00    -0.009 A 
ATOM     25  C   UNL     1       3.399   9.529  -1.298  1.00  0.00     0.010 A 
ATOM     26  C   UNL     1       0.543   6.436  -1.676  1.00  0.00     0.009 A 
ATOM     27  C   UNL     1       1.186   8.568  -0.696  1.00  0.00    -0.010 A 
ATOM     28  C   UNL     1       0.264   7.521  -0.852  1.00  0.00     0.010 A 
BRANCH  27  29
ATOM     29  C   UNL     1       0.823   9.680   0.198  1.00  0.00    -0.018 A 
ATOM     30  C   UNL     1       1.673  10.064   1.244  1.00  0.00     0.012 A 
ATOM     31  C   UNL     1      -0.386  10.371   0.031  1.00  0.00     0.012 A 
ATOM     32  C   UNL     1       1.320  11.115   2.095  1.00  0.00     0.047 A 
ATOM     33  C   UNL     1      -0.738  11.423   0.884  1.00  0.00     0.047 A 
ATOM     34  C   UNL     1       0.115  11.800   1.921  1.00  0.00     0.118 A 
BRANCH  34  35
ATOM     35  O   UNL     1      -0.107  12.804   2.823  1.00  0.00    -0.497 OA
ATOM     36  C   UNL     1       0.906  13.795   2.945  1.00  0.00     0.278 C 
ENDBRANCH  34  35
ENDBRANCH  27  29
ENDBRANCH   4  13
TORSDOF 6
ENDMDL
MODEL 4
REMARK VINA RESULT:   -17.898      2.937      5.414
REMARK INTER + INTRA:         -22.765
REMARK INTER:                 -21.478
REMARK INTRA:                  -1.288
REMARK CONF_INDEPENDENT:        3.580
REMARK UNBOUND:                -1.288
REMARK SMILES CC[NH2+]Cc1ccc(-c2ccc3ccc4c(-c5ccc(OC)cc5)ccc5ccc2c3c54)cc1
REMARK SMILES IDX 5 1 6 2 7 3 8 4 33 5 34 6 4 7 3 8 2 11 1 12 9 13 10 14 30 15
REMARK SMILES IDX 11 16 29 17 31 18 12 19 28 20 32 21 13 22 27 23 15 24 14 25
REMARK SMILES IDX 26 26 16 27 25 28 17 29 18 30 24 31 19 32 23 33 20 34 21 35
REMARK SMILES IDX 22 36
REMARK H PARENT 3 9 3 10
REMARK Flexibility Score: inf
ROOT
ATOM      1  C   UNL     1      -0.410   3.336   2.245  1.00  0.00     0.006 A 
ATOM      2  C   UNL     1       0.898   3.815   2.412  1.00  0.00     0.010 A 
ATOM      3  C   UNL     1       1.590   4.374   1.333  1.00  0.00     0.009 A 
ATOM      4  C   UNL     1       0.994   4.465   0.068  1.00  0.00    -0.018 A 
ATOM      5  C   UNL     1      -0.314   3.987  -0.094  1.00  0.00     0.009 A 
ATOM      6  C   UNL     1      -1.010   3.426   0.981  1.00  0.00     0.010 A 
ENDROOT
BRANCH   1   7
ATOM      7  C   UNL     1      -1.167   2.763   3.410  1.00  0.00     0.297 C 
BRANCH   7   8
ATOM      8  N   UNL     1      -0.517   3.051   4.726  1.00  0.00    -0.343 N 
ATOM      9  H   UNL     1       0.018   3.923   4.634  1.00  0.00     0.346 HD
ATOM     10  H   UNL     1      -1.255   3.238   5.416  1.00  0.00     0.346 HD
BRANCH   8  11
ATOM     11  C   UNL     1       0.380   1.974   5.245  1.00  0.00     0.257 C 
ATOM     12  C   UNL     1       0.556   0.923   4.168  1.00  0.00     0.071 C 
ENDBRANCH   8  11
ENDBRANCH   7   8
ENDBRANCH   1   7
BRANCH   4  13
ATOM     13  C   UNL     1       1.724   5.052  -1.067  1.00  0.00    -0.010 A 
ATOM     14  C   UNL     1       0.991   5.777  -2.020  1.00  0.00     0.010 A 
ATOM     15  C   UNL     1       3.131   4.903  -1.233  1.00  0.00    -0.009 A 
ATOM     16  C   UNL     1       1.619   6.348  -3.124  1.00  0.00     0.009 A 
ATOM     17  C   UNL     1       3.940   4.198  -0.318  1.00  0.00     0.010 A 
ATOM     18  C   UNL     1       3.765   5.485  -2.364  1.00  0.00    -0.002 A 
ATOM     19  C   UNL     1       2.997   6.207  -3.307  1.00  0.00    -0.017 A 
ATOM     20  C   UNL     1       5.315   4.065  -0.507  1.00  0.00     0.009 A 
ATOM     21  C   UNL     1       5.170   5.350  -2.564  1.00  0.00    -0.002 A 
ATOM     22  C   UNL     1       3.622   6.776  -4.418  1.00  0.00     0.009 A 
ATOM     23  C   UNL     1       5.939   4.631  -1.620  1.00  0.00    -0.017 A 
ATOM     24  C   UNL     1       5.804   5.927  -3.699  1.00  0.00    -0.009 A 
ATOM     25  C   UNL     1       4.997   6.637  -4.609  1.00  0.00     0.010 A 
ATOM     26  C   UNL     1       7.318   4.491  -1.804  1.00  0.00     0.009 A 
ATOM     27  C   UNL     1       7.207   5.769  -3.872  1.00  0.00    -0.010 A 
ATOM     28  C   UNL     1       7.942   5.051  -2.915  1.00  0.00     0.010 A 
BRANCH  27  29
ATOM     29  C   UNL     1       7.934   6.326  -5.023  1.00  0.00    -0.018 A 
ATOM     30  C   UNL     1       7.410   6.225  -6.319  1.00  0.00     0.012 A 
ATOM     31  C   UNL     1       9.173   6.961  -4.851  1.00  0.00     0.012 A 
ATOM     32  C   UNL     1       8.108   6.750  -7.410  1.00  0.00     0.047 A 
ATOM     33  C   UNL     1       9.872   7.485  -5.945  1.00  0.00     0.047 A 
ATOM     34  C   UNL     1       9.341   7.382  -7.230  1.00  0.00     0.118 A 
BRANCH  34  35
ATOM     35  O   UNL     1       9.917   7.847  -8.380  1.00  0.00    -0.497 OA
ATOM     36  C   UNL     1      11.123   7.220  -8.796  1.00  0.00     0.278 C 
ENDBRANCH  34  35
ENDBRANCH  27  29
ENDBRANCH   4  13
TORSDOF 6
REMARK SMILES CC[NH2+]Cc1ccc(-c2ccc3ccc4c(-c5ccc(OC)cc5)ccc5ccc2c3c54)cc1
REMARK SMILES IDX 5 1 6 2 7 3 8 4 33 5 34 6 4 7 3 8 2 11 1 12 9 13 10 14 30 15
REMARK SMILES IDX 11 16 29 17 31 18 12 19 28 20 32 21 13 22 27 23 15 24 14 25
REMARK SMILES IDX 26 26 16 27 25 28 17 29 18 30 24 31 19 32 23 33 20 34 21 35
REMARK SMILES IDX 22 36
REMARK H PARENT 3 9 3 10
REMARK Flexibility Score: inf
ROOT
ATOM      1  C   UNL     1       8.366  10.493  -5.495  1.00  0.00     0.006 A 
ATOM      2  C   UNL     1       8.998  10.527  -4.242  1.00  0.00     0.010 A 
ATOM      3  C   UNL     1       8.381   9.959  -3.123  1.00  0.00     0.009 A 
ATOM      4  C   UNL     1       7.124   9.348  -3.229  1.00  0.00    -0.018 A 
ATOM      5  C   UNL     1       6.497   9.315  -4.482  1.00  0.00     0.009 A 
ATOM      6  C   UNL     1       7.108   9.882  -5.604  1.00  0.00     0.010 A 
ENDROOT
BRANCH   1   7
ATOM      7  C   UNL     1       9.039  11.075  -6.705  1.00  0.00     0.297 C 
BRANCH   7   8
ATOM      8  N   UNL     1       8.895  10.217  -7.921  1.00  0.00    -0.343 N 
ATOM      9  H   UNL     1       9.835  10.005  -8.276  1.00  0.00     0.346 HD
ATOM     10  H   UNL     1       8.486   9.318  -7.635  1.00  0.00     0.346 HD
BRANCH   8  11
ATOM     11  C   UNL     1       8.072  10.803  -9.022  1.00  0.00     0.257 C 
ATOM     12  C   UNL     1       6.972  11.650  -8.415  1.00  0.00     0.071 C 
ENDBRANCH   8  11
ENDBRANCH   7   8
ENDBRANCH   1   7
BRANCH   4  13
ATOM     13  C   UNL     1       6.476   8.753  -2.049  1.00  0.00    -0.010 A 
ATOM     14  C   UNL     1       7.276   8.032  -1.149  1.00  0.00     0.010 A 
ATOM     15  C   UNL     1       5.079   8.875  -1.800  1.00  0.00    -0.009 A 
ATOM     16  C   UNL     1       6.723   7.433  -0.020  1.00  0.00     0.009 A 
ATOM     17  C   UNL     1       4.207   9.588  -2.649  1.00  0.00     0.010 A 
ATOM     18  C   UNL     1       4.520   8.259  -0.646  1.00  0.00    -0.002 A 
ATOM     19  C   UNL     1       5.354   7.537   0.239  1.00  0.00    -0.017 A 
ATOM     20  C   UNL     1       2.843   9.689  -2.381  1.00  0.00     0.009 A 
ATOM     21  C   UNL     1       3.126   8.356  -0.369  1.00  0.00    -0.002 A 
ATOM     22  C   UNL     1       4.803   6.932   1.369  1.00  0.00     0.009 A 
ATOM     23  C   UNL     1       2.291   9.080  -1.252  1.00  0.00    -0.017 A 
ATOM     24  C   UNL     1       2.565   7.734   0.780  1.00  0.00    -0.009 A 
ATOM     25  C   UNL     1       3.436   7.028   1.633  1.00  0.00     0.010 A 
ATOM     26  C   UNL     1       0.921   9.183  -0.993  1.00  0.00     0.009 A 
ATOM     27  C   UNL     1       1.168   7.846   1.025  1.00  0.00    -0.010 A 
ATOM     28  C   UNL     1       0.369   8.574   0.129  1.00  0.00     0.010 A 
BRANCH  27  29
ATOM     29  C   UNL     1       0.512   7.224   2.186  1.00  0.00    -0.018 A 
ATOM     30  C   UNL     1       1.205   7.047   3.391  1.00  0.00     0.012 A 
ATOM     31  C   UNL     1      -0.818   6.784   2.109  1.00  0.00     0.012 A 
ATOM     32  C   UNL     1       0.579   6.449   4.489  1.00  0.00     0.047 A 
ATOM     33  C   UNL     1      -1.443   6.184   3.208  1.00  0.00     0.047 A 
ATOM     34  C   UNL     1      -0.746   6.014   4.404  1.00  0.00     0.118 A 
BRANCH  34  35
ATOM     35  O   UNL     1      -1.234   5.446   5.548  1.00  0.00    -0.497 OA
ATOM     36  C   UNL     1      -2.648   5.376   5.680  1.00  0.00     0.278 C 
ENDBRANCH  34  35
ENDBRANCH  27  29
ENDBRANCH   4  13
TORSDOF 6
ENDMDL
MODEL 5
REMARK VINA RESULT:   -17.260      2.973     10.249
REMARK INTER + INTRA:         -22.013
REMARK INTER:                 -20.840
REMARK INTRA:                  -1.173
REMARK CONF_INDEPENDENT:        3.580
REMARK UNBOUND:                -1.173
REMARK SMILES CC[NH2+]Cc1ccc(-c2ccc3ccc4c(-c5ccc(OC)cc5)ccc5ccc2c3c54)cc1
REMARK SMILES IDX 5 1 6 2 7 3 8 4 33 5 34 6 4 7 3 8 2 11 1 12 9 13 10 14 30 15
REMARK SMILES IDX 11 16 29 17 31 18 12 19 28 20 32 21 13 22 27 23 15 24 14 25
REMARK SMILES IDX 26 26 16 27 25 28 17 29 18 30 24 31 19 32 23 33 20 34 21 35
REMARK SMILES IDX 22 36
REMARK H PARENT 3 9 3 10
REMARK Flexibility Score: inf
ROOT
ATOM      1  C   UNL     1       8.634  10.158  -6.052  1.00  0.00     0.006 A 
ATOM      2  C   UNL     1       9.435   9.900  -4.930  1.00  0.00     0.010 A 
ATOM      3  C   UNL     1       8.880   9.335  -3.778  1.00  0.00     0.009 A 
ATOM      4  C   UNL     1       7.516   9.017  -3.721  1.00  0.00    -0.018 A 
ATOM      5  C   UNL     1       6.719   9.275  -4.845  1.00  0.00     0.009 A 
ATOM      6  C   UNL     1       7.269   9.840  -5.999  1.00  0.00     0.010 A 
ENDROOT
BRANCH   1   7
ATOM      7  C   UNL     1       9.234  10.736  -7.302  1.00  0.00     0.297 C 
BRANCH   7   8
ATOM      8  N   UNL     1      10.553  10.123  -7.653  1.00  0.00    -0.343 N 
ATOM      9  H   UNL     1      11.184  10.243  -6.852  1.00  0.00     0.346 HD
ATOM     10  H   UNL     1      10.418   9.110  -7.765  1.00  0.00     0.346 HD
BRANCH   8  11
ATOM     11  C   UNL     1      11.205  10.671  -8.881  1.00  0.00     0.257 C 
ATOM     12  C   UNL     1      11.792  12.030  -8.559  1.00  0.00     0.071 C 
ENDBRANCH   8  11
ENDBRANCH   7   8
ENDBRANCH   1   7
BRANCH   4  13
ATOM     13  C   UNL     1       6.932   8.425  -2.507  1.00  0.00    -0.010 A 
ATOM     14  C   UNL     1       7.746   7.595  -1.720  1.00  0.00     0.010 A 
ATOM     15  C   UNL     1       5.582   8.657  -2.114  1.00  0.00    -0.009 A 
ATOM     16  C   UNL     1       7.251   6.993  -0.565  1.00  0.00     0.009 A 
ATOM     17  C   UNL     1       4.703   9.483  -2.843  1.00  0.00     0.010 A 
ATOM     18  C   UNL     1       5.083   8.037  -0.936  1.00  0.00    -0.002 A 
ATOM     19  C   UNL     1       5.929   7.204  -0.167  1.00  0.00    -0.017 A 
ATOM     20  C   UNL     1       3.385   9.690  -2.436  1.00  0.00     0.009 A 
ATOM     21  C   UNL     1       3.736   8.242  -0.517  1.00  0.00    -0.002 A 
ATOM     22  C   UNL     1       5.435   6.595   0.988  1.00  0.00     0.009 A 
ATOM     23  C   UNL     1       2.891   9.078  -1.283  1.00  0.00    -0.017 A 
ATOM     24  C   UNL     1       3.234   7.617   0.658  1.00  0.00    -0.009 A 
ATOM     25  C   UNL     1       4.115   6.798   1.391  1.00  0.00     0.010 A 
ATOM     26  C   UNL     1       1.567   9.288  -0.884  1.00  0.00     0.009 A 
ATOM     27  C   UNL     1       1.883   7.839   1.045  1.00  0.00    -0.010 A 
ATOM     28  C   UNL     1       1.072   8.676   0.263  1.00  0.00     0.010 A 
BRANCH  27  29
ATOM     29  C   UNL     1       1.287   7.221   2.241  1.00  0.00    -0.018 A 
ATOM     30  C   UNL     1      -0.080   6.920   2.284  1.00  0.00     0.012 A 
ATOM     31  C   UNL     1       2.072   6.932   3.367  1.00  0.00     0.012 A 
ATOM     32  C   UNL     1      -0.643   6.339   3.425  1.00  0.00     0.047 A 
ATOM     33  C   UNL     1       1.507   6.352   4.508  1.00  0.00     0.047 A 
ATOM     34  C   UNL     1       0.145   6.053   4.541  1.00  0.00     0.118 A 
BRANCH  34  35
ATOM     35  O   UNL     1      -0.531   5.489   5.588  1.00  0.00    -0.497 OA
ATOM     36  C   UNL     1      -1.893   5.866   5.753  1.00  0.00     0.278 C 
ENDBRANCH  34  35
ENDBRANCH  27  29
ENDBRANCH   4  13
TORSDOF 6
REMARK SMILES CC[NH2+]Cc1ccc(-c2ccc3ccc4c(-c5ccc(OC)cc5)ccc5ccc2c3c54)cc1
REMARK SMILES IDX 5 1 6 2 7 3 8 4 33 5 34 6 4 7 3 8 2 11 1 12 9 13 10 14 30 15
REMARK SMILES IDX 11 16 29 17 31 18 12 19 28 20 32 21 13 22 27 23 15 24 14 25
REMARK SMILES IDX 26 26 16 27 25 28 17 29 18 30 24 31 19 32 23 33 20 34 21 35
REMARK SMILES IDX 22 36
REMARK H PARENT 3 9 3 10
REMARK Flexibility Score: inf
ROOT
ATOM      1  C   UNL     1      -0.176   3.422   2.009  1.00  0.00     0.006 A 
ATOM      2  C   UNL     1      -0.843   3.671   0.800  1.00  0.00     0.010 A 
ATOM      3  C   UNL     1      -0.165   4.252  -0.275  1.00  0.00     0.009 A 
ATOM      4  C   UNL     1       1.189   4.597  -0.168  1.00  0.00    -0.018 A 
ATOM      5  C   UNL     1       1.852   4.345   1.041  1.00  0.00     0.009 A 
ATOM      6  C   UNL     1       1.179   3.765   2.120  1.00  0.00     0.010 A 
ENDROOT
BRANCH   1   7
ATOM      7  C   UNL     1      -0.894   2.769   3.157  1.00  0.00     0.297 C 
BRANCH   7   8
ATOM      8  N   UNL     1      -0.310   3.125   4.487  1.00  0.00    -0.343 N 
ATOM      9  H   UNL     1       0.317   3.928   4.356  1.00  0.00     0.346 HD
ATOM     10  H   UNL     1      -1.071   3.450   5.097  1.00  0.00     0.346 HD
BRANCH   8  11
ATOM     11  C   UNL     1       0.434   2.025   5.173  1.00  0.00     0.257 C 
ATOM     12  C   UNL     1      -0.125   0.694   4.711  1.00  0.00     0.071 C 
ENDBRANCH   8  11
ENDBRANCH   7   8
ENDBRANCH   1   7
BRANCH   4  13
ATOM     13  C   UNL     1       1.901   5.210  -1.301  1.00  0.00    -0.010 A 
ATOM     14  C   UNL     1       1.214   6.157  -2.078  1.00  0.00     0.010 A 
ATOM     15  C   UNL     1       3.244   4.873  -1.635  1.00  0.00    -0.009 A 
ATOM     16  C   UNL     1       1.825   6.765  -3.171  1.00  0.00     0.009 A 
ATOM     17  C   UNL     1       4.005   3.941  -0.902  1.00  0.00     0.010 A 
ATOM     18  C   UNL     1       3.861   5.497  -2.754  1.00  0.00    -0.002 A 
ATOM     19  C   UNL     1       3.140   6.444  -3.518  1.00  0.00    -0.017 A 
ATOM     20  C   UNL     1       5.318   3.627  -1.253  1.00  0.00     0.009 A 
ATOM     21  C   UNL     1       5.202   5.179  -3.120  1.00  0.00    -0.002 A 
ATOM     22  C   UNL     1       3.748   7.052  -4.617  1.00  0.00     0.009 A 
ATOM     23  C   UNL     1       5.924   4.234  -2.355  1.00  0.00    -0.017 A 
ATOM     24  C   UNL     1       5.817   5.796  -4.243  1.00  0.00    -0.009 A 
ATOM     25  C   UNL     1       5.059   6.734  -4.972  1.00  0.00     0.010 A 
ATOM     26  C   UNL     1       7.240   3.912  -2.702  1.00  0.00     0.009 A 
ATOM     27  C   UNL     1       7.155   5.453  -4.585  1.00  0.00    -0.010 A 
ATOM     28  C   UNL     1       7.845   4.513  -3.803  1.00  0.00     0.010 A 
BRANCH  27  29
ATOM     29  C   UNL     1       7.858   6.040  -5.736  1.00  0.00    -0.018 A 
ATOM     30  C   UNL     1       9.206   6.411  -5.639  1.00  0.00     0.012 A 
ATOM     31  C   UNL     1       7.191   6.252  -6.952  1.00  0.00     0.012 A 
ATOM     32  C   UNL     1       9.867   6.975  -6.734  1.00  0.00     0.047 A 
ATOM     33  C   UNL     1       7.855   6.818  -8.047  1.00  0.00     0.047 A 
ATOM     34  C   UNL     1       9.197   7.182  -7.942  1.00  0.00     0.118 A 
BRANCH  34  35
ATOM     35  O   UNL     1       9.960   7.743  -8.929  1.00  0.00    -0.497 OA
ATOM     36  C   UNL     1      11.285   7.248  -9.079  1.00  0.00     0.278 C 
ENDBRANCH  34  35
ENDBRANCH  27  29
ENDBRANCH   4  13
TORSDOF 6
ENDMDL
MODEL 6
REMARK VINA RESULT:   -17.094      2.219     10.925
REMARK INTER + INTRA:         -21.467
REMARK INTER:                 -20.674
REMARK INTRA:                  -0.794
REMARK CONF_INDEPENDENT:        3.580
REMARK UNBOUND:                -0.794
REMARK SMILES CC[NH2+]Cc1ccc(-c2ccc3ccc4c(-c5ccc(OC)cc5)ccc5ccc2c3c54)cc1
REMARK SMILES IDX 5 1 6 2 7 3 8 4 33 5 34 6 4 7 3 8 2 11 1 12 9 13 10 14 30 15
REMARK SMILES IDX 11 16 29 17 31 18 12 19 28 20 32 21 13 22 27 23 15 24 14 25
REMARK SMILES IDX 26 26 16 27 25 28 17 29 18 30 24 31 19 32 23 33 20 34 21 35
REMARK SMILES IDX 22 36
REMARK H PARENT 3 9 3 10
REMARK Flexibility Score: inf
ROOT
ATOM      1  C   UNL     1       8.723   8.208  -7.298  1.00  0.00     0.006 A 
ATOM      2  C   UNL     1       9.385   8.821  -6.224  1.00  0.00     0.010 A 
ATOM      3  C   UNL     1       8.792   8.866  -4.959  1.00  0.00     0.009 A 
ATOM      4  C   UNL     1       7.527   8.303  -4.739  1.00  0.00    -0.018 A 
ATOM      5  C   UNL     1       6.870   7.689  -5.815  1.00  0.00     0.009 A 
ATOM      6  C   UNL     1       7.458   7.642  -7.082  1.00  0.00     0.010 A 
ENDROOT
BRANCH   1   7
ATOM      7  C   UNL     1       9.371   8.131  -8.651  1.00  0.00     0.297 C 
BRANCH   7   8
ATOM      8  N   UNL     1      10.796   7.679  -8.590  1.00  0.00    -0.343 N 
ATOM      9  H   UNL     1      11.022   7.469  -7.610  1.00  0.00     0.346 HD
ATOM     10  H   UNL     1      10.875   6.791  -9.101  1.00  0.00     0.346 HD
BRANCH   8  11
ATOM     11  C   UNL     1      11.797   8.648  -9.131  1.00  0.00     0.257 C 
ATOM     12  C   UNL     1      11.759   9.910  -8.294  1.00  0.00     0.071 C 
ENDBRANCH   8  11
ENDBRANCH   7   8
ENDBRANCH   1   7
BRANCH   4  13
ATOM     13  C   UNL     1       6.903   8.353  -3.408  1.00  0.00    -0.010 A 
ATOM     14  C   UNL     1       7.744   8.437  -2.286  1.00  0.00     0.010 A 
ATOM     15  C   UNL     1       5.491   8.310  -3.221  1.00  0.00    -0.009 A 
ATOM     16  C   UNL     1       7.218   8.476  -0.998  1.00  0.00     0.009 A 
ATOM     17  C   UNL     1       4.578   8.233  -4.293  1.00  0.00     0.010 A 
ATOM     18  C   UNL     1       4.961   8.347  -1.903  1.00  0.00    -0.002 A 
ATOM     19  C   UNL     1       5.836   8.429  -0.794  1.00  0.00    -0.017 A 
ATOM     20  C   UNL     1       3.201   8.190  -4.081  1.00  0.00     0.009 A 
ATOM     21  C   UNL     1       3.554   8.299  -1.679  1.00  0.00    -0.002 A 
ATOM     22  C   UNL     1       5.313   8.462   0.498  1.00  0.00     0.009 A 
ATOM     23  C   UNL     1       2.678   8.220  -2.787  1.00  0.00    -0.017 A 
ATOM     24  C   UNL     1       3.023   8.329  -0.361  1.00  0.00    -0.009 A 
ATOM     25  C   UNL     1       3.935   8.413   0.710  1.00  0.00     0.010 A 
ATOM     26  C   UNL     1       1.296   8.173  -2.583  1.00  0.00     0.009 A 
ATOM     27  C   UNL     1       1.614   8.275  -0.172  1.00  0.00    -0.010 A 
ATOM     28  C   UNL     1       0.772   8.199  -1.294  1.00  0.00     0.010 A 
BRANCH  27  29
ATOM     29  C   UNL     1       0.988   8.292   1.160  1.00  0.00    -0.018 A 
ATOM     30  C   UNL     1      -0.243   7.659   1.380  1.00  0.00     0.012 A 
ATOM     31  C   UNL     1       1.604   8.950   2.234  1.00  0.00     0.012 A 
ATOM     32  C   UNL     1      -0.836   7.684   2.646  1.00  0.00     0.047 A 
ATOM     33  C   UNL     1       1.008   8.975   3.500  1.00  0.00     0.047 A 
ATOM     34  C   UNL     1      -0.216   8.340   3.711  1.00  0.00     0.118 A 
BRANCH  34  35
ATOM     35  O   UNL     1      -0.905   8.289   4.891  1.00  0.00    -0.497 OA
ATOM     36  C   UNL     1      -2.240   8.779   4.880  1.00  0.00     0.278 C 
ENDBRANCH  34  35
ENDBRANCH  27  29
ENDBRANCH   4  13
TORSDOF 6
REMARK SMILES CC[NH2+]Cc1ccc(-c2ccc3ccc4c(-c5ccc(OC)cc5)ccc5ccc2c3c54)cc1
REMARK SMILES IDX 5 1 6 2 7 3 8 4 33 5 34 6 4 7 3 8 2 11 1 12 9 13 10 14 30 15
REMARK SMILES IDX 11 16 29 17 31 18 12 19 28 20 32 21 13 22 27 23 15 24 14 25
REMARK SMILES IDX 26 26 16 27 25 28 17 29 18 30 24 31 19 32 23 33 20 34 21 35
REMARK SMILES IDX 22 36
REMARK H PARENT 3 9 3 10
REMARK Flexibility Score: inf
ROOT
ATOM      1  C   UNL     1       1.192   5.130   3.585  1.00  0.00     0.006 A 
ATOM      2  C   UNL     1       0.529   4.493   2.526  1.00  0.00     0.010 A 
ATOM      3  C   UNL     1       1.094   4.473   1.247  1.00  0.00     0.009 A 
ATOM      4  C   UNL     1       2.330   5.087   0.999  1.00  0.00    -0.018 A 
ATOM      5  C   UNL     1       2.990   5.720   2.061  1.00  0.00     0.009 A 
ATOM      6  C   UNL     1       2.429   5.744   3.341  1.00  0.00     0.010 A 
ENDROOT
BRANCH   1   7
ATOM      7  C   UNL     1       0.601   5.126   4.967  1.00  0.00     0.297 C 
BRANCH   7   8
ATOM      8  N   UNL     1      -0.779   5.700   5.012  1.00  0.00    -0.343 N 
ATOM      9  H   UNL     1      -0.729   6.617   5.473  1.00  0.00     0.346 HD
ATOM     10  H   UNL     1      -1.086   5.879   4.047  1.00  0.00     0.346 HD
BRANCH   8  11
ATOM     11  C   UNL     1      -1.800   4.855   5.703  1.00  0.00     0.257 C 
ATOM     12  C   UNL     1      -3.164   5.153   5.114  1.00  0.00     0.071 C 
ENDBRANCH   8  11
ENDBRANCH   7   8
ENDBRANCH   1   7
BRANCH   4  13
ATOM     13  C   UNL     1       2.923   5.067  -0.348  1.00  0.00    -0.010 A 
ATOM     14  C   UNL     1       2.055   5.033  -1.451  1.00  0.00     0.010 A 
ATOM     15  C   UNL     1       4.331   5.072  -0.565  1.00  0.00    -0.009 A 
ATOM     16  C   UNL     1       2.552   5.000  -2.752  1.00  0.00     0.009 A 
ATOM     17  C   UNL     1       5.269   5.113   0.487  1.00  0.00     0.010 A 
ATOM     18  C   UNL     1       4.831   5.035  -1.896  1.00  0.00    -0.002 A 
ATOM     19  C   UNL     1       3.929   4.999  -2.985  1.00  0.00    -0.017 A 
ATOM     20  C   UNL     1       6.642   5.115   0.245  1.00  0.00     0.009 A 
ATOM     21  C   UNL     1       6.233   5.033  -2.149  1.00  0.00    -0.002 A 
ATOM     22  C   UNL     1       4.423   4.961  -4.289  1.00  0.00     0.009 A 
ATOM     23  C   UNL     1       7.135   5.073  -1.061  1.00  0.00    -0.017 A 
ATOM     24  C   UNL     1       6.734   4.990  -3.479  1.00  0.00    -0.009 A 
ATOM     25  C   UNL     1       5.797   4.956  -4.531  1.00  0.00     0.010 A 
ATOM     26  C   UNL     1       8.514   5.072  -1.295  1.00  0.00     0.009 A 
ATOM     27  C   UNL     1       8.140   4.984  -3.698  1.00  0.00    -0.010 A 
ATOM     28  C   UNL     1       9.008   5.026  -2.595  1.00  0.00     0.010 A 
BRANCH  27  29
ATOM     29  C   UNL     1       8.736   4.930  -5.042  1.00  0.00    -0.018 A 
ATOM     30  C   UNL     1       8.057   4.314  -6.102  1.00  0.00     0.012 A 
ATOM     31  C   UNL     1      10.001   5.484  -5.290  1.00  0.00     0.012 A 
ATOM     32  C   UNL     1       8.631   4.260  -7.376  1.00  0.00     0.047 A 
ATOM     33  C   UNL     1      10.574   5.428  -6.565  1.00  0.00     0.047 A 
ATOM     34  C   UNL     1       9.890   4.815  -7.615  1.00  0.00     0.118 A 
BRANCH  34  35
ATOM     35  O   UNL     1      10.333   4.691  -8.902  1.00  0.00    -0.497 OA
ATOM     36  C   UNL     1      11.494   3.895  -9.110  1.00  0.00     0.278 C 
ENDBRANCH  34  35
ENDBRANCH  27  29
ENDBRANCH   4  13
TORSDOF 6
ENDMDL
MODEL 7
REMARK VINA RESULT:   -16.848      3.597     10.016
REMARK INTER + INTRA:         -21.457
REMARK INTER:                 -20.427
REMARK INTRA:                  -1.030
REMARK CONF_INDEPENDENT:        3.580
REMARK UNBOUND:                -1.030
REMARK SMILES CC[NH2+]Cc1ccc(-c2ccc3ccc4c(-c5ccc(OC)cc5)ccc5ccc2c3c54)cc1
REMARK SMILES IDX 5 1 6 2 7 3 8 4 33 5 34 6 4 7 3 8 2 11 1 12 9 13 10 14 30 15
REMARK SMILES IDX 11 16 29 17 31 18 12 19 28 20 32 21 13 22 27 23 15 24 14 25
REMARK SMILES IDX 26 26 16 27 25 28 17 29 18 30 24 31 19 32 23 33 20 34 21 35
REMARK SMILES IDX 22 36
REMARK H PARENT 3 9 3 10
REMARK Flexibility Score: inf
ROOT
ATOM      1  C   UNL     1      10.132   9.251  -5.606  1.00  0.00     0.006 A 
ATOM      2  C   UNL     1      10.406   8.332  -4.582  1.00  0.00     0.010 A 
ATOM      3  C   UNL     1       9.400   7.488  -4.101  1.00  0.00     0.009 A 
ATOM      4  C   UNL     1       8.103   7.544  -4.630  1.00  0.00    -0.018 A 
ATOM      5  C   UNL     1       7.835   8.462  -5.654  1.00  0.00     0.009 A 
ATOM      6  C   UNL     1       8.836   9.309  -6.138  1.00  0.00     0.010 A 
ENDROOT
BRANCH   1   7
ATOM      7  C   UNL     1      11.219  10.138  -6.145  1.00  0.00     0.297 C 
BRANCH   7   8
ATOM      8  N   UNL     1      11.133  11.541  -5.634  1.00  0.00    -0.343 N 
ATOM      9  H   UNL     1      11.452  11.545  -4.657  1.00  0.00     0.346 HD
ATOM     10  H   UNL     1      11.804  12.117  -6.158  1.00  0.00     0.346 HD
BRANCH   8  11
ATOM     11  C   UNL     1       9.779  12.168  -5.714  1.00  0.00     0.257 C 
ATOM     12  C   UNL     1       9.812  13.500  -4.991  1.00  0.00     0.071 C 
ENDBRANCH   8  11
ENDBRANCH   7   8
ENDBRANCH   1   7
BRANCH   4  13
ATOM     13  C   UNL     1       7.045   6.656  -4.122  1.00  0.00    -0.010 A 
ATOM     14  C   UNL     1       7.336   5.289  -3.989  1.00  0.00     0.010 A 
ATOM     15  C   UNL     1       5.748   7.132  -3.773  1.00  0.00    -0.009 A 
ATOM     16  C   UNL     1       6.376   4.394  -3.525  1.00  0.00     0.009 A 
ATOM     17  C   UNL     1       5.377   8.489  -3.868  1.00  0.00     0.010 A 
ATOM     18  C   UNL     1       4.771   6.211  -3.303  1.00  0.00    -0.002 A 
ATOM     19  C   UNL     1       5.097   4.840  -3.184  1.00  0.00    -0.017 A 
ATOM     20  C   UNL     1       4.099   8.926  -3.522  1.00  0.00     0.009 A 
ATOM     21  C   UNL     1       3.462   6.652  -2.950  1.00  0.00    -0.002 A 
ATOM     22  C   UNL     1       4.135   3.939  -2.725  1.00  0.00     0.009 A 
ATOM     23  C   UNL     1       3.137   8.023  -3.067  1.00  0.00    -0.017 A 
ATOM     24  C   UNL     1       2.483   5.731  -2.487  1.00  0.00    -0.009 A 
ATOM     25  C   UNL     1       2.855   4.376  -2.384  1.00  0.00     0.010 A 
ATOM     26  C   UNL     1       1.857   8.469  -2.724  1.00  0.00     0.009 A 
ATOM     27  C   UNL     1       1.184   6.203  -2.149  1.00  0.00    -0.010 A 
ATOM     28  C   UNL     1       0.895   7.571  -2.274  1.00  0.00     0.010 A 
BRANCH  27  29
ATOM     29  C   UNL     1       0.114   5.312  -1.672  1.00  0.00    -0.018 A 
ATOM     30  C   UNL     1       0.415   4.175  -0.910  1.00  0.00     0.012 A 
ATOM     31  C   UNL     1      -1.229   5.575  -1.978  1.00  0.00     0.012 A 
ATOM     32  C   UNL     1      -0.605   3.329  -0.465  1.00  0.00     0.047 A 
ATOM     33  C   UNL     1      -2.249   4.726  -1.533  1.00  0.00     0.047 A 
ATOM     34  C   UNL     1      -1.940   3.598  -0.774  1.00  0.00     0.118 A 
BRANCH  34  35
ATOM     35  O   UNL     1      -2.835   2.690  -0.279  1.00  0.00    -0.497 OA
ATOM     36  C   UNL     1      -3.113   1.553  -1.088  1.00  0.00     0.278 C 
ENDBRANCH  34  35
ENDBRANCH  27  29
ENDBRANCH   4  13
TORSDOF 6
REMARK SMILES CC[NH2+]Cc1ccc(-c2ccc3ccc4c(-c5ccc(OC)cc5)ccc5ccc2c3c54)cc1
REMARK SMILES IDX 5 1 6 2 7 3 8 4 33 5 34 6 4 7 3 8 2 11 1 12 9 13 10 14 30 15
REMARK SMILES IDX 11 16 29 17 31 18 12 19 28 20 32 21 13 22 27 23 15 24 14 25
REMARK SMILES IDX 26 26 16 27 25 28 17 29 18 30 24 31 19 32 23 33 20 34 21 35
REMARK SMILES IDX 22 36
REMARK H PARENT 3 9 3 10
REMARK Flexibility Score: inf
ROOT
ATOM      1  C   UNL     1      -1.704   3.995   2.619  1.00  0.00     0.006 A 
ATOM      2  C   UNL     1      -0.336   3.717   2.764  1.00  0.00     0.010 A 
ATOM      3  C   UNL     1       0.623   4.629   2.314  1.00  0.00     0.009 A 
ATOM      4  C   UNL     1       0.241   5.835   1.712  1.00  0.00    -0.018 A 
ATOM      5  C   UNL     1      -1.127   6.110   1.570  1.00  0.00     0.009 A 
ATOM      6  C   UNL     1      -2.090   5.202   2.016  1.00  0.00     0.010 A 
ENDROOT
BRANCH   1   7
ATOM      7  C   UNL     1      -2.737   3.031   3.128  1.00  0.00     0.297 C 
BRANCH   7   8
ATOM      8  N   UNL     1      -2.672   1.697   2.454  1.00  0.00    -0.343 N 
ATOM      9  H   UNL     1      -3.196   1.760   1.573  1.00  0.00     0.346 HD
ATOM     10  H   UNL     1      -1.694   1.514   2.196  1.00  0.00     0.346 HD
BRANCH   8  11
ATOM     11  C   UNL     1      -3.192   0.550   3.258  1.00  0.00     0.257 C 
ATOM     12  C   UNL     1      -2.684  -0.743   2.653  1.00  0.00     0.071 C 
ENDBRANCH   8  11
ENDBRANCH   7   8
ENDBRANCH   1   7
BRANCH   4  13
ATOM     13  C   UNL     1       1.252   6.793   1.237  1.00  0.00    -0.010 A 
ATOM     14  C   UNL     1       0.882   8.143   1.126  1.00  0.00     0.010 A 
ATOM     15  C   UNL     1       2.574   6.399   0.883  1.00  0.00    -0.009 A 
ATOM     16  C   UNL     1       1.788   9.098   0.673  1.00  0.00     0.009 A 
ATOM     17  C   UNL     1       3.028   5.067   0.974  1.00  0.00     0.010 A 
ATOM     18  C   UNL     1       3.493   7.379   0.418  1.00  0.00    -0.002 A 
ATOM     19  C   UNL     1       3.087   8.730   0.315  1.00  0.00    -0.017 A 
ATOM     20  C   UNL     1       4.328   4.709   0.618  1.00  0.00     0.009 A 
ATOM     21  C   UNL     1       4.822   7.019   0.050  1.00  0.00    -0.002 A 
ATOM     22  C   UNL     1       3.990   9.690  -0.144  1.00  0.00     0.009 A 
ATOM     23  C   UNL     1       5.229   5.669   0.155  1.00  0.00    -0.017 A 
ATOM     24  C   UNL     1       5.739   7.998  -0.422  1.00  0.00    -0.009 A 
ATOM     25  C   UNL     1       5.289   9.331  -0.506  1.00  0.00     0.010 A 
ATOM     26  C   UNL     1       6.530   5.301  -0.203  1.00  0.00     0.009 A 
ATOM     27  C   UNL     1       7.057   7.604  -0.787  1.00  0.00    -0.010 A 
ATOM     28  C   UNL     1       7.429   6.256  -0.668  1.00  0.00     0.010 A 
BRANCH  27  29
ATOM     29  C   UNL     1       8.060   8.555  -1.293  1.00  0.00    -0.018 A 
ATOM     30  C   UNL     1       9.415   8.406  -0.969  1.00  0.00     0.012 A 
ATOM     31  C   UNL     1       7.680   9.638  -2.099  1.00  0.00     0.012 A 
ATOM     32  C   UNL     1      10.363   9.315  -1.447  1.00  0.00     0.047 A 
ATOM     33  C   UNL     1       8.630  10.549  -2.576  1.00  0.00     0.047 A 
ATOM     34  C   UNL     1       9.977  10.390  -2.251  1.00  0.00     0.118 A 
BRANCH  34  35
ATOM     35  O   UNL     1      11.003  11.204  -2.646  1.00  0.00    -0.497 OA
ATOM     36  C   UNL     1      11.474  12.154  -1.698  1.00  0.00     0.278 C 
ENDBRANCH  34  35
ENDBRANCH  27  29
ENDBRANCH   4  13
TORSDOF 6
ENDMDL
MODEL 8
REMARK VINA RESULT:   -16.201      3.886      8.116
REMARK INTER + INTRA:         -21.524
REMARK INTER:                 -19.780
REMARK INTRA:                  -1.744
REMARK CONF_INDEPENDENT:        3.580
REMARK UNBOUND:                -1.744
REMARK SMILES CC[NH2+]Cc1ccc(-c2ccc3ccc4c(-c5ccc(OC)cc5)ccc5ccc2c3c54)cc1
REMARK SMILES IDX 5 1 6 2 7 3 8 4 33 5 34 6 4 7 3 8 2 11 1 12 9 13 10 14 30 15
REMARK SMILES IDX 11 16 29 17 31 18 12 19 28 20 32 21 13 22 27 23 15 24 14 25
REMARK SMILES IDX 26 26 16 27 25 28 17 29 18 30 24 31 19 32 23 33 20 34 21 35
REMARK SMILES IDX 22 36
REMARK H PARENT 3 9 3 10
REMARK Flexibility Score: inf
ROOT
ATOM      1  C   UNL     1      10.086   8.707  -5.302  1.00  0.00     0.006 A 
ATOM      2  C   UNL     1       9.361   7.519  -5.480  1.00  0.00     0.010 A 
ATOM      3  C   UNL     1       8.574   7.009  -4.442  1.00  0.00     0.009 A 
ATOM      4  C   UNL     1       8.496   7.670  -3.209  1.00  0.00    -0.018 A 
ATOM      5  C   UNL     1       9.221   8.857  -3.036  1.00  0.00     0.009 A 
ATOM      6  C   UNL     1      10.010   9.371  -4.069  1.00  0.00     0.010 A 
ENDROOT
BRANCH   1   7
ATOM      7  C   UNL     1      10.908   9.274  -6.425  1.00  0.00     0.297 C 
BRANCH   7   8
ATOM      8  N   UNL     1      10.807  10.763  -6.526  1.00  0.00    -0.343 N 
ATOM      9  H   UNL     1      11.119  11.166  -5.635  1.00  0.00     0.346 HD
ATOM     10  H   UNL     1      11.475  11.084  -7.238  1.00  0.00     0.346 HD
BRANCH   8  11
ATOM     11  C   UNL     1       9.447  11.289  -6.856  1.00  0.00     0.257 C 
ATOM     12  C   UNL     1       8.876  11.973  -5.631  1.00  0.00     0.071 C 
ENDBRANCH   8  11
ENDBRANCH   7   8
ENDBRANCH   1   7
BRANCH   4  13
ATOM     13  C   UNL     1       7.669   7.130  -2.118  1.00  0.00    -0.010 A 
ATOM     14  C   UNL     1       8.057   5.912  -1.535  1.00  0.00     0.010 A 
ATOM     15  C   UNL     1       6.499   7.790  -1.644  1.00  0.00    -0.009 A 
ATOM     16  C   UNL     1       7.312   5.341  -0.507  1.00  0.00     0.009 A 
ATOM     17  C   UNL     1       6.046   9.018  -2.168  1.00  0.00     0.010 A 
ATOM     18  C   UNL     1       5.741   7.200  -0.596  1.00  0.00    -0.002 A 
ATOM     19  C   UNL     1       6.158   5.971  -0.033  1.00  0.00    -0.017 A 
ATOM     20  C   UNL     1       4.895   9.641  -1.687  1.00  0.00     0.009 A 
ATOM     21  C   UNL     1       4.562   7.830  -0.102  1.00  0.00    -0.002 A 
ATOM     22  C   UNL     1       5.411   5.393   0.994  1.00  0.00     0.009 A 
ATOM     23  C   UNL     1       4.147   9.061  -0.662  1.00  0.00    -0.017 A 
ATOM     24  C   UNL     1       3.800   7.237   0.942  1.00  0.00    -0.009 A 
ATOM     25  C   UNL     1       4.256   6.013   1.471  1.00  0.00     0.010 A 
ATOM     26  C   UNL     1       2.992   9.690  -0.188  1.00  0.00     0.009 A 
ATOM     27  C   UNL     1       2.625   7.889   1.408  1.00  0.00    -0.010 A 
ATOM     28  C   UNL     1       2.242   9.111   0.832  1.00  0.00     0.010 A 
BRANCH  27  29
ATOM     29  C   UNL     1       1.779   7.335   2.477  1.00  0.00    -0.018 A 
ATOM     30  C   UNL     1       0.408   7.622   2.525  1.00  0.00     0.012 A 
ATOM     31  C   UNL     1       2.327   6.519   3.477  1.00  0.00     0.012 A 
ATOM     32  C   UNL     1      -0.391   7.099   3.546  1.00  0.00     0.047 A 
ATOM     33  C   UNL     1       1.526   5.997   4.499  1.00  0.00     0.047 A 
ATOM     34  C   UNL     1       0.162   6.285   4.537  1.00  0.00     0.118 A 
BRANCH  34  35
ATOM     35  O   UNL     1      -0.729   5.844   5.476  1.00  0.00    -0.497 OA
ATOM     36  C   UNL     1      -1.767   4.983   5.025  1.00  0.00     0.278 C 
ENDBRANCH  34  35
ENDBRANCH  27  29
ENDBRANCH   4  13
TORSDOF 6
REMARK SMILES CC[NH2+]Cc1ccc(-c2ccc3ccc4c(-c5ccc(OC)cc5)ccc5ccc2c3c54)cc1
REMARK SMILES IDX 5 1 6 2 7 3 8 4 33 5 34 6 4 7 3 8 2 11 1 12 9 13 10 14 30 15
REMARK SMILES IDX 11 16 29 17 31 18 12 19 28 20 32 21 13 22 27 23 15 24 14 25
REMARK SMILES IDX 26 26 16 27 25 28 17 29 18 30 24 31 19 32 23 33 20 34 21 35
REMARK SMILES IDX 22 36
REMARK H PARENT 3 9 3 10
REMARK Flexibility Score: inf
ROOT
ATOM      1  C   UNL     1       6.275   9.236  -7.590  1.00  0.00     0.006 A 
ATOM      2  C   UNL     1       6.183   9.689  -6.266  1.00  0.00     0.010 A 
ATOM      3  C   UNL     1       5.754   8.829  -5.251  1.00  0.00     0.009 A 
ATOM      4  C   UNL     1       5.408   7.500  -5.535  1.00  0.00    -0.018 A 
ATOM      5  C   UNL     1       5.504   7.051  -6.859  1.00  0.00     0.009 A 
ATOM      6  C   UNL     1       5.931   7.907  -7.878  1.00  0.00     0.010 A 
ENDROOT
BRANCH   1   7
ATOM      7  C   UNL     1       6.765  10.150  -8.677  1.00  0.00     0.297 C 
BRANCH   7   8
ATOM      8  N   UNL     1       6.179  11.524  -8.591  1.00  0.00    -0.343 N 
ATOM      9  H   UNL     1       5.295  11.527  -9.114  1.00  0.00     0.346 HD
ATOM     10  H   UNL     1       5.935  11.709  -7.610  1.00  0.00     0.346 HD
BRANCH   8  11
ATOM     11  C   UNL     1       7.056  12.624  -9.096  1.00  0.00     0.257 C 
ATOM     12  C   UNL     1       6.314  13.939  -8.969  1.00  0.00     0.071 C 
ENDBRANCH   8  11
ENDBRANCH   7   8
ENDBRANCH   1   7
BRANCH   4  13
ATOM     13  C   UNL     1       4.956   6.596  -4.466  1.00  0.00    -0.010 A 
ATOM     14  C   UNL     1       5.718   5.446  -4.207  1.00  0.00     0.010 A 
ATOM     15  C   UNL     1       3.779   6.842  -3.702  1.00  0.00    -0.009 A 
ATOM     16  C   UNL     1       5.338   4.543  -3.217  1.00  0.00     0.009 A 
ATOM     17  C   UNL     1       2.963   7.976  -3.893  1.00  0.00     0.010 A 
ATOM     18  C   UNL     1       3.395   5.914  -2.695  1.00  0.00    -0.002 A 
ATOM     19  C   UNL     1       4.184   4.763  -2.461  1.00  0.00    -0.017 A 
ATOM     20  C   UNL     1       1.815   8.190  -3.131  1.00  0.00     0.009 A 
ATOM     21  C   UNL     1       2.221   6.125  -1.915  1.00  0.00    -0.002 A 
ATOM     22  C   UNL     1       3.804   3.854  -1.474  1.00  0.00     0.009 A 
ATOM     23  C   UNL     1       1.433   7.277  -2.146  1.00  0.00    -0.017 A 
ATOM     24  C   UNL     1       1.833   5.194  -0.913  1.00  0.00    -0.009 A 
ATOM     25  C   UNL     1       2.652   4.065  -0.716  1.00  0.00     0.010 A 
ATOM     26  C   UNL     1       0.279   7.498  -1.389  1.00  0.00     0.009 A 
ATOM     27  C   UNL     1       0.652   5.433  -0.156  1.00  0.00    -0.010 A 
ATOM     28  C   UNL     1      -0.106   6.587  -0.410  1.00  0.00     0.010 A 
BRANCH  27  29
ATOM     29  C   UNL     1       0.179   4.513   0.891  1.00  0.00    -0.018 A 
ATOM     30  C   UNL     1       1.047   4.062   1.894  1.00  0.00     0.012 A 
ATOM     31  C   UNL     1      -1.148   4.058   0.901  1.00  0.00     0.012 A 
ATOM     32  C   UNL     1       0.595   3.183   2.882  1.00  0.00     0.047 A 
ATOM     33  C   UNL     1      -1.599   3.177   1.890  1.00  0.00     0.047 A 
ATOM     34  C   UNL     1      -0.728   2.736   2.886  1.00  0.00     0.118 A 
BRANCH  34  35
ATOM     35  O   UNL     1      -1.038   1.878   3.905  1.00  0.00    -0.497 OA
ATOM     36  C   UNL     1      -0.027   1.643   4.878  1.00  0.00     0.278 C 
ENDBRANCH  34  35
ENDBRANCH  27  29
ENDBRANCH   4  13
TORSDOF 6
ENDMDL
MODEL 9
REMARK VINA RESULT:   -16.035      3.858      7.842
REMARK INTER + INTRA:         -21.540
REMARK INTER:                 -19.614
REMARK INTRA:                  -1.926
REMARK CONF_INDEPENDENT:        3.580
REMARK UNBOUND:                -1.926
REMARK SMILES CC[NH2+]Cc1ccc(-c2ccc3ccc4c(-c5ccc(OC)cc5)ccc5ccc2c3c54)cc1
REMARK SMILES IDX 5 1 6 2 7 3 8 4 33 5 34 6 4 7 3 8 2 11 1 12 9 13 10 14 30 15
REMARK SMILES IDX 11 16 29 17 31 18 12 19 28 20 32 21 13 22 27 23 15 24 14 25
REMARK SMILES IDX 26 26 16 27 25 28 17 29 18 30 24 31 19 32 23 33 20 34 21 35
REMARK SMILES IDX 22 36
REMARK H PARENT 3 9 3 10
REMARK Flexibility Score: inf
ROOT
ATOM      1  C   UNL     1       6.600  10.005  -7.027  1.00  0.00     0.006 A 
ATOM      2  C   UNL     1       6.480  10.220  -5.646  1.00  0.00     0.010 A 
ATOM      3  C   UNL     1       5.960   9.222  -4.816  1.00  0.00     0.009 A 
ATOM      4  C   UNL     1       5.548   7.991  -5.345  1.00  0.00    -0.018 A 
ATOM      5  C   UNL     1       5.672   7.779  -6.726  1.00  0.00     0.009 A 
ATOM      6  C   UNL     1       6.190   8.774  -7.560  1.00  0.00     0.010 A 
ENDROOT
BRANCH   1   7
ATOM      7  C   UNL     1       7.186  11.064  -7.916  1.00  0.00     0.297 C 
BRANCH   7   8
ATOM      8  N   UNL     1       6.554  12.405  -7.720  1.00  0.00    -0.343 N 
ATOM      9  H   UNL     1       5.627  12.389  -8.162  1.00  0.00     0.346 HD
ATOM     10  H   UNL     1       6.392  12.542  -6.714  1.00  0.00     0.346 HD
BRANCH   8  11
ATOM     11  C   UNL     1       7.334  13.563  -8.253  1.00  0.00     0.257 C 
ATOM     12  C   UNL     1       8.684  13.066  -8.730  1.00  0.00     0.071 C 
ENDBRANCH   8  11
ENDBRANCH   7   8
ENDBRANCH   1   7
BRANCH   4  13
ATOM     13  C   UNL     1       5.000   6.942  -4.472  1.00  0.00    -0.010 A 
ATOM     14  C   UNL     1       5.627   5.686  -4.472  1.00  0.00     0.010 A 
ATOM     15  C   UNL     1       3.861   7.154  -3.642  1.00  0.00    -0.009 A 
ATOM     16  C   UNL     1       5.151   4.647  -3.678  1.00  0.00     0.009 A 
ATOM     17  C   UNL     1       3.179   8.386  -3.576  1.00  0.00     0.010 A 
ATOM     18  C   UNL     1       3.378   6.087  -2.835  1.00  0.00    -0.002 A 
ATOM     19  C   UNL     1       4.032   4.834  -2.862  1.00  0.00    -0.017 A 
ATOM     20  C   UNL     1       2.065   8.565  -2.756  1.00  0.00     0.009 A 
ATOM     21  C   UNL     1       2.238   6.263  -1.997  1.00  0.00    -0.002 A 
ATOM     22  C   UNL     1       3.554   3.788  -2.071  1.00  0.00     0.009 A 
ATOM     23  C   UNL     1       1.586   7.517  -1.968  1.00  0.00    -0.017 A 
ATOM     24  C   UNL     1       1.750   5.195  -1.196  1.00  0.00    -0.009 A 
ATOM     25  C   UNL     1       2.436   3.965  -1.255  1.00  0.00     0.010 A 
ATOM     26  C   UNL     1       0.467   7.704  -1.151  1.00  0.00     0.009 A 
ATOM     27  C   UNL     1       0.607   5.402  -0.375  1.00  0.00    -0.010 A 
ATOM     28  C   UNL     1      -0.016   6.660  -0.367  1.00  0.00     0.010 A 
BRANCH  27  29
ATOM     29  C   UNL     1       0.036   4.345   0.475  1.00  0.00    -0.018 A 
ATOM     30  C   UNL     1       0.700   3.922   1.635  1.00  0.00     0.012 A 
ATOM     31  C   UNL     1      -1.178   3.729   0.137  1.00  0.00     0.012 A 
ATOM     32  C   UNL     1       0.156   2.913   2.435  1.00  0.00     0.047 A 
ATOM     33  C   UNL     1      -1.720   2.717   0.938  1.00  0.00     0.047 A 
ATOM     34  C   UNL     1      -1.054   2.305   2.092  1.00  0.00     0.118 A 
BRANCH  34  35
ATOM     35  O   UNL     1      -1.470   1.332   2.959  1.00  0.00    -0.497 OA
ATOM     36  C   UNL     1      -1.044   1.449   4.311  1.00  0.00     0.278 C 
ENDBRANCH  34  35
ENDBRANCH  27  29
ENDBRANCH   4  13
TORSDOF 6
REMARK SMILES CC[NH2+]Cc1ccc(-c2ccc3ccc4c(-c5ccc(OC)cc5)ccc5ccc2c3c54)cc1
REMARK SMILES IDX 5 1 6 2 7 3 8 4 33 5 34 6 4 7 3 8 2 11 1 12 9 13 10 14 30 15
REMARK SMILES IDX 11 16 29 17 31 18 12 19 28 20 32 21 13 22 27 23 15 24 14 25
REMARK SMILES IDX 26 26 16 27 25 28 17 29 18 30 24 31 19 32 23 33 20 34 21 35
REMARK SMILES IDX 22 36
REMARK H PARENT 3 9 3 10
REMARK Flexibility Score: inf
ROOT
ATOM      1  C   UNL     1      10.244   8.819  -5.073  1.00  0.00     0.006 A 
ATOM      2  C   UNL     1       9.460   7.710  -5.425  1.00  0.00     0.010 A 
ATOM      3  C   UNL     1       8.623   7.107  -4.480  1.00  0.00     0.009 A 
ATOM      4  C   UNL     1       8.552   7.596  -3.169  1.00  0.00    -0.018 A 
ATOM      5  C   UNL     1       9.336   8.706  -2.823  1.00  0.00     0.009 A 
ATOM      6  C   UNL     1      10.174   9.312  -3.762  1.00  0.00     0.010 A 
ENDROOT
BRANCH   1   7
ATOM      7  C   UNL     1      11.121   9.488  -6.094  1.00  0.00     0.297 C 
BRANCH   7   8
ATOM      8  N   UNL     1      10.546  10.771  -6.605  1.00  0.00    -0.343 N 
ATOM      9  H   UNL     1      11.054  11.030  -7.459  1.00  0.00     0.346 HD
ATOM     10  H   UNL     1       9.573  10.599  -6.888  1.00  0.00     0.346 HD
BRANCH   8  11
ATOM     11  C   UNL     1      10.583  11.914  -5.642  1.00  0.00     0.257 C 
ATOM     12  C   UNL     1       9.172  12.200  -5.167  1.00  0.00     0.071 C 
ENDBRANCH   8  11
ENDBRANCH   7   8
ENDBRANCH   1   7
BRANCH   4  13
ATOM     13  C   UNL     1       7.672   6.960  -2.176  1.00  0.00    -0.010 A 
ATOM     14  C   UNL     1       7.926   5.623  -1.828  1.00  0.00     0.010 A 
ATOM     15  C   UNL     1       6.580   7.644  -1.569  1.00  0.00    -0.009 A 
ATOM     16  C   UNL     1       7.125   4.958  -0.904  1.00  0.00     0.009 A 
ATOM     17  C   UNL     1       6.262   8.987  -1.856  1.00  0.00     0.010 A 
ATOM     18  C   UNL     1       5.763   6.958  -0.629  1.00  0.00    -0.002 A 
ATOM     19  C   UNL     1       6.045   5.611  -0.303  1.00  0.00    -0.017 A 
ATOM     20  C   UNL     1       5.184   9.631  -1.249  1.00  0.00     0.009 A 
ATOM     21  C   UNL     1       4.659   7.610  -0.007  1.00  0.00    -0.002 A 
ATOM     22  C   UNL     1       5.241   4.940   0.619  1.00  0.00     0.009 A 
ATOM     23  C   UNL     1       4.378   8.958  -0.330  1.00  0.00    -0.017 A 
ATOM     24  C   UNL     1       3.838   6.923   0.928  1.00  0.00    -0.009 A 
ATOM     25  C   UNL     1       4.159   5.583   1.221  1.00  0.00     0.010 A 
ATOM     26  C   UNL     1       3.298   9.610   0.272  1.00  0.00     0.009 A 
ATOM     27  C   UNL     1       2.740   7.601   1.527  1.00  0.00    -0.010 A 
ATOM     28  C   UNL     1       2.490   8.940   1.186  1.00  0.00     0.010 A 
BRANCH  27  29
ATOM     29  C   UNL     1       1.839   6.957   2.496  1.00  0.00    -0.018 A 
ATOM     30  C   UNL     1       0.469   7.255   2.508  1.00  0.00     0.012 A 
ATOM     31  C   UNL     1       2.332   6.040   3.435  1.00  0.00     0.012 A 
ATOM     32  C   UNL     1      -0.381   6.645   3.435  1.00  0.00     0.047 A 
ATOM     33  C   UNL     1       1.480   5.431   4.364  1.00  0.00     0.047 A 
ATOM     34  C   UNL     1       0.118   5.732   4.366  1.00  0.00     0.118 A 
BRANCH  34  35
ATOM     35  O   UNL     1      -0.821   5.212   5.215  1.00  0.00    -0.497 OA
ATOM     36  C   UNL     1      -2.103   4.934   4.666  1.00  0.00     0.278 C 
ENDBRANCH  34  35
ENDBRANCH  27  29
ENDBRANCH   4  13
TORSDOF 6
ENDMDL
MODEL 10
REMARK VINA RESULT:   -15.821      3.484      8.629
REMARK INTER + INTRA:         -21.314
REMARK INTER:                 -19.401
REMARK INTRA:                  -1.913
REMARK CONF_INDEPENDENT:        3.580
REMARK UNBOUND:                -1.913
REMARK SMILES CC[NH2+]Cc1ccc(-c2ccc3ccc4c(-c5ccc(OC)cc5)ccc5ccc2c3c54)cc1
REMARK SMILES IDX 5 1 6 2 7 3 8 4 33 5 34 6 4 7 3 8 2 11 1 12 9 13 10 14 30 15
REMARK SMILES IDX 11 16 29 17 31 18 12 19 28 20 32 21 13 22 27 23 15 24 14 25
REMARK SMILES IDX 26 26 16 27 25 28 17 29 18 30 24 31 19 32 23 33 20 34 21 35
REMARK SMILES IDX 22 36
REMARK H PARENT 3 9 3 10
REMARK Flexibility Score: inf
ROOT
ATOM      1  C   UNL     1      10.206   6.722  -6.340  1.00  0.00     0.006 A 
ATOM      2  C   UNL     1       9.647   5.455  -6.560  1.00  0.00     0.010 A 
ATOM      3  C   UNL     1       8.607   4.990  -5.750  1.00  0.00     0.009 A 
ATOM      4  C   UNL     1       8.104   5.777  -4.705  1.00  0.00    -0.018 A 
ATOM      5  C   UNL     1       8.664   7.044  -4.490  1.00  0.00     0.009 A 
ATOM      6  C   UNL     1       9.705   7.514  -5.296  1.00  0.00     0.010 A 
ENDROOT
BRANCH   1   7
ATOM      7  C   UNL     1      11.303   7.237  -7.228  1.00  0.00     0.297 C 
BRANCH   7   8
ATOM      8  N   UNL     1      10.799   8.115  -8.329  1.00  0.00    -0.343 N 
ATOM      9  H   UNL     1      11.433   8.018  -9.131  1.00  0.00     0.346 HD
ATOM     10  H   UNL     1       9.887   7.755  -8.637  1.00  0.00     0.346 HD
BRANCH   8  11
ATOM     11  C   UNL     1      10.662   9.562  -7.979  1.00  0.00     0.257 C 
ATOM     12  C   UNL     1       9.219   9.979  -8.175  1.00  0.00     0.071 C 
ENDBRANCH   8  11
ENDBRANCH   7   8
ENDBRANCH   1   7
BRANCH   4  13
ATOM     13  C   UNL     1       7.010   5.286  -3.852  1.00  0.00    -0.010 A 
ATOM     14  C   UNL     1       7.233   4.124  -3.096  1.00  0.00     0.010 A 
ATOM     15  C   UNL     1       5.746   5.938  -3.776  1.00  0.00    -0.009 A 
ATOM     16  C   UNL     1       6.236   3.600  -2.278  1.00  0.00     0.009 A 
ATOM     17  C   UNL     1       5.444   7.112  -4.496  1.00  0.00     0.010 A 
ATOM     18  C   UNL     1       4.731   5.395  -2.941  1.00  0.00    -0.002 A 
ATOM     19  C   UNL     1       4.987   4.221  -2.194  1.00  0.00    -0.017 A 
ATOM     20  C   UNL     1       4.196   7.728  -4.405  1.00  0.00     0.009 A 
ATOM     21  C   UNL     1       3.452   6.018  -2.846  1.00  0.00    -0.002 A 
ATOM     22  C   UNL     1       3.989   3.690  -1.378  1.00  0.00     0.009 A 
ATOM     23  C   UNL     1       3.196   7.193  -3.590  1.00  0.00    -0.017 A 
ATOM     24  C   UNL     1       2.435   5.472  -2.016  1.00  0.00    -0.009 A 
ATOM     25  C   UNL     1       2.738   4.303  -1.291  1.00  0.00     0.010 A 
ATOM     26  C   UNL     1       1.947   7.815  -3.506  1.00  0.00     0.009 A 
ATOM     27  C   UNL     1       1.168   6.116  -1.948  1.00  0.00    -0.010 A 
ATOM     28  C   UNL     1       0.947   7.282  -2.697  1.00  0.00     0.010 A 
BRANCH  27  29
ATOM     29  C   UNL     1       0.061   5.608  -1.121  1.00  0.00    -0.018 A 
ATOM     30  C   UNL     1      -0.131   4.230  -0.951  1.00  0.00     0.012 A 
ATOM     31  C   UNL     1      -0.831   6.491  -0.495  1.00  0.00     0.012 A 
ATOM     32  C   UNL     1      -1.188   3.753  -0.170  1.00  0.00     0.047 A 
ATOM     33  C   UNL     1      -1.889   6.011   0.286  1.00  0.00     0.047 A 
ATOM     34  C   UNL     1      -2.072   4.639   0.452  1.00  0.00     0.118 A 
BRANCH  34  35
ATOM     35  O   UNL     1      -3.060   4.039   1.183  1.00  0.00    -0.497 OA
ATOM     36  C   UNL     1      -2.821   3.873   2.575  1.00  0.00     0.278 C 
ENDBRANCH  34  35
ENDBRANCH  27  29
ENDBRANCH   4  13
TORSDOF 6
REMARK SMILES CC[NH2+]Cc1ccc(-c2ccc3ccc4c(-c5ccc(OC)cc5)ccc5ccc2c3c54)cc1
REMARK SMILES IDX 5 1 6 2 7 3 8 4 33 5 34 6 4 7 3 8 2 11 1 12 9 13 10 14 30 15
REMARK SMILES IDX 11 16 29 17 31 18 12 19 28 20 32 21 13 22 27 23 15 24 14 25
REMARK SMILES IDX 26 26 16 27 25 28 17 29 18 30 24 31 19 32 23 33 20 34 21 35
REMARK SMILES IDX 22 36
REMARK H PARENT 3 9 3 10
REMARK Flexibility Score: inf
ROOT
ATOM      1  C   UNL     1       8.317  11.617  -4.529  1.00  0.00     0.006 A 
ATOM      2  C   UNL     1       7.197  10.835  -4.850  1.00  0.00     0.010 A 
ATOM      3  C   UNL     1       6.735   9.862  -3.958  1.00  0.00     0.009 A 
ATOM      4  C   UNL     1       7.378   9.649  -2.731  1.00  0.00    -0.018 A 
ATOM      5  C   UNL     1       8.495  10.435  -2.414  1.00  0.00     0.009 A 
ATOM      6  C   UNL     1       8.962  11.408  -3.302  1.00  0.00     0.010 A 
ENDROOT
BRANCH   1   7
ATOM      7  C   UNL     1       8.797  12.684  -5.471  1.00  0.00     0.297 C 
BRANCH   7   8
ATOM      8  N   UNL     1       7.680  13.388  -6.174  1.00  0.00    -0.343 N 
ATOM      9  H   UNL     1       6.922  12.712  -6.325  1.00  0.00     0.346 HD
ATOM     10  H   UNL     1       7.304  14.107  -5.543  1.00  0.00     0.346 HD
BRANCH   8  11
ATOM     11  C   UNL     1       8.044  14.021  -7.478  1.00  0.00     0.257 C 
ATOM     12  C   UNL     1       6.912  13.803  -8.462  1.00  0.00     0.071 C 
ENDBRANCH   8  11
ENDBRANCH   7   8
ENDBRANCH   1   7
BRANCH   4  13
ATOM     13  C   UNL     1       6.891   8.624  -1.795  1.00  0.00    -0.010 A 
ATOM     14  C   UNL     1       7.758   7.572  -1.458  1.00  0.00     0.010 A 
ATOM     15  C   UNL     1       5.583   8.658  -1.233  1.00  0.00    -0.009 A 
ATOM     16  C   UNL     1       7.356   6.563  -0.587  1.00  0.00     0.009 A 
ATOM     17  C   UNL     1       4.655   9.683  -1.512  1.00  0.00     0.010 A 
ATOM     18  C   UNL     1       5.177   7.623  -0.346  1.00  0.00    -0.002 A 
ATOM     19  C   UNL     1       6.074   6.576  -0.030  1.00  0.00    -0.017 A 
ATOM     20  C   UNL     1       3.379   9.690  -0.950  1.00  0.00     0.009 A 
ATOM     21  C   UNL     1       3.873   7.623   0.230  1.00  0.00    -0.002 A 
ATOM     22  C   UNL     1       5.672   5.561   0.838  1.00  0.00     0.009 A 
ATOM     23  C   UNL     1       2.977   8.672  -0.084  1.00  0.00    -0.017 A 
ATOM     24  C   UNL     1       3.465   6.585   1.110  1.00  0.00    -0.009 A 
ATOM     25  C   UNL     1       4.394   5.565   1.396  1.00  0.00     0.010 A 
ATOM     26  C   UNL     1       1.695   8.685   0.474  1.00  0.00     0.009 A 
ATOM     27  C   UNL     1       2.154   6.612   1.664  1.00  0.00    -0.010 A 
ATOM     28  C   UNL     1       1.290   7.668   1.334  1.00  0.00     0.010 A 
BRANCH  27  29
ATOM     29  C   UNL     1       1.654   5.570   2.575  1.00  0.00    -0.018 A 
ATOM     30  C   UNL     1       1.087   4.392   2.072  1.00  0.00     0.012 A 
ATOM     31  C   UNL     1       1.722   5.739   3.966  1.00  0.00     0.012 A 
ATOM     32  C   UNL     1       0.607   3.408   2.942  1.00  0.00     0.047 A 
ATOM     33  C   UNL     1       1.239   4.754   4.835  1.00  0.00     0.047 A 
ATOM     34  C   UNL     1       0.680   3.583   4.325  1.00  0.00     0.118 A 
BRANCH  34  35
ATOM     35  O   UNL     1       0.172   2.546   5.059  1.00  0.00    -0.497 OA
ATOM     36  C   UNL     1      -1.095   2.036   4.663  1.00  0.00     0.278 C 
ENDBRANCH  34  35
ENDBRANCH  27  29
ENDBRANCH   4  13
TORSDOF 6
ENDMDL
MODEL 11
REMARK VINA RESULT:   -15.818      3.419      9.220
REMARK INTER + INTRA:         -21.555
REMARK INTER:                 -19.397
REMARK INTRA:                  -2.158
REMARK CONF_INDEPENDENT:        3.580
REMARK UNBOUND:                -2.158
REMARK SMILES CC[NH2+]Cc1ccc(-c2ccc3ccc4c(-c5ccc(OC)cc5)ccc5ccc2c3c54)cc1
REMARK SMILES IDX 5 1 6 2 7 3 8 4 33 5 34 6 4 7 3 8 2 11 1 12 9 13 10 14 30 15
REMARK SMILES IDX 11 16 29 17 31 18 12 19 28 20 32 21 13 22 27 23 15 24 14 25
REMARK SMILES IDX 26 26 16 27 25 28 17 29 18 30 24 31 19 32 23 33 20 34 21 35
REMARK SMILES IDX 22 36
REMARK H PARENT 3 9 3 10
REMARK Flexibility Score: inf
ROOT
ATOM      1  C   UNL     1       8.047   1.116  -3.207  1.00  0.00     0.006 A 
ATOM      2  C   UNL     1       7.808   1.905  -2.072  1.00  0.00     0.010 A 
ATOM      3  C   UNL     1       6.995   3.039  -2.157  1.00  0.00     0.009 A 
ATOM      4  C   UNL     1       6.405   3.410  -3.373  1.00  0.00    -0.018 A 
ATOM      5  C   UNL     1       6.645   2.618  -4.504  1.00  0.00     0.009 A 
ATOM      6  C   UNL     1       7.458   1.484  -4.425  1.00  0.00     0.010 A 
ENDROOT
BRANCH   1   7
ATOM      7  C   UNL     1       8.895  -0.120  -3.111  1.00  0.00     0.297 C 
BRANCH   7   8
ATOM      8  N   UNL     1      10.058   0.041  -2.184  1.00  0.00    -0.343 N 
ATOM      9  H   UNL     1      10.117   1.031  -1.915  1.00  0.00     0.346 HD
ATOM     10  H   UNL     1       9.857  -0.481  -1.322  1.00  0.00     0.346 HD
BRANCH   8  11
ATOM     11  C   UNL     1      11.377  -0.402  -2.731  1.00  0.00     0.257 C 
ATOM     12  C   UNL     1      11.726   0.460  -3.927  1.00  0.00     0.071 C 
ENDBRANCH   8  11
ENDBRANCH   7   8
ENDBRANCH   1   7
BRANCH   4  13
ATOM     13  C   UNL     1       5.551   4.605  -3.462  1.00  0.00    -0.010 A 
ATOM     14  C   UNL     1       5.986   5.670  -4.267  1.00  0.00     0.010 A 
ATOM     15  C   UNL     1       4.317   4.719  -2.759  1.00  0.00    -0.009 A 
ATOM     16  C   UNL     1       5.231   6.834  -4.384  1.00  0.00     0.009 A 
ATOM     17  C   UNL     1       3.805   3.694  -1.938  1.00  0.00     0.010 A 
ATOM     18  C   UNL     1       3.553   5.912  -2.881  1.00  0.00    -0.002 A 
ATOM     19  C   UNL     1       4.021   6.967  -3.699  1.00  0.00    -0.017 A 
ATOM     20  C   UNL     1       2.595   3.833  -1.259  1.00  0.00     0.009 A 
ATOM     21  C   UNL     1       2.316   6.062  -2.188  1.00  0.00    -0.002 A 
ATOM     22  C   UNL     1       3.270   8.137  -3.815  1.00  0.00     0.009 A 
ATOM     23  C   UNL     1       1.845   5.006  -1.373  1.00  0.00    -0.017 A 
ATOM     24  C   UNL     1       1.555   7.257  -2.304  1.00  0.00    -0.009 A 
ATOM     25  C   UNL     1       2.062   8.278  -3.131  1.00  0.00     0.010 A 
ATOM     26  C   UNL     1       0.634   5.139  -0.687  1.00  0.00     0.009 A 
ATOM     27  C   UNL     1       0.327   7.376  -1.595  1.00  0.00    -0.010 A 
ATOM     28  C   UNL     1      -0.112   6.308  -0.796  1.00  0.00     0.010 A 
BRANCH  27  29
ATOM     29  C   UNL     1      -0.512   8.583  -1.656  1.00  0.00    -0.018 A 
ATOM     30  C   UNL     1      -0.176   9.727  -0.920  1.00  0.00     0.012 A 
ATOM     31  C   UNL     1      -1.674   8.611  -2.442  1.00  0.00     0.012 A 
ATOM     32  C   UNL     1      -0.981  10.869  -0.976  1.00  0.00     0.047 A 
ATOM     33  C   UNL     1      -2.479   9.755  -2.496  1.00  0.00     0.047 A 
ATOM     34  C   UNL     1      -2.135  10.889  -1.762  1.00  0.00     0.118 A 
BRANCH  34  35
ATOM     35  O   UNL     1      -2.831  12.066  -1.724  1.00  0.00    -0.497 OA
ATOM     36  C   UNL     1      -2.917  12.723  -0.465  1.00  0.00     0.278 C 
ENDBRANCH  34  35
ENDBRANCH  27  29
ENDBRANCH   4  13
TORSDOF 6
REMARK SMILES CC[NH2+]Cc1ccc(-c2ccc3ccc4c(-c5ccc(OC)cc5)ccc5ccc2c3c54)cc1
REMARK SMILES IDX 5 1 6 2 7 3 8 4 33 5 34 6 4 7 3 8 2 11 1 12 9 13 10 14 30 15
REMARK SMILES IDX 11 16 29 17 31 18 12 19 28 20 32 21 13 22 27 23 15 24 14 25
REMARK SMILES IDX 26 26 16 27 25 28 17 29 18 30 24 31 19 32 23 33 20 34 21 35
REMARK SMILES IDX 22 36
REMARK H PARENT 3 9 3 10
REMARK Flexibility Score: inf
ROOT
ATOM      1  C   UNL     1       8.260  11.485  -4.244  1.00  0.00     0.006 A 
ATOM      2  C   UNL     1       7.203  10.674  -4.685  1.00  0.00     0.010 A 
ATOM      3  C   UNL     1       6.710   9.651  -3.870  1.00  0.00     0.009 A 
ATOM      4  C   UNL     1       7.258   9.415  -2.602  1.00  0.00    -0.018 A 
ATOM      5  C   UNL     1       8.312  10.229  -2.165  1.00  0.00     0.009 A 
ATOM      6  C   UNL     1       8.811  11.253  -2.976  1.00  0.00     0.010 A 
ENDROOT
BRANCH   1   7
ATOM      7  C   UNL     1       8.772  12.605  -5.105  1.00  0.00     0.297 C 
BRANCH   7   8
ATOM      8  N   UNL     1       7.682  13.330  -5.828  1.00  0.00    -0.343 N 
ATOM      9  H   UNL     1       6.928  12.661  -6.023  1.00  0.00     0.346 HD
ATOM     10  H   UNL     1       7.286  14.034  -5.192  1.00  0.00     0.346 HD
BRANCH   8  11
ATOM     11  C   UNL     1       8.093  13.996  -7.101  1.00  0.00     0.257 C 
ATOM     12  C   UNL     1       7.597  13.168  -8.269  1.00  0.00     0.071 C 
ENDBRANCH   8  11
ENDBRANCH   7   8
ENDBRANCH   1   7
BRANCH   4  13
ATOM     13  C   UNL     1       6.739   8.337  -1.746  1.00  0.00    -0.010 A 
ATOM     14  C   UNL     1       7.486   7.152  -1.649  1.00  0.00     0.010 A 
ATOM     15  C   UNL     1       5.513   8.451  -1.028  1.00  0.00    -0.009 A 
ATOM     16  C   UNL     1       7.045   6.088  -0.867  1.00  0.00     0.009 A 
ATOM     17  C   UNL     1       4.708   9.608  -1.065  1.00  0.00     0.010 A 
ATOM     18  C   UNL     1       5.067   7.360  -0.233  1.00  0.00    -0.002 A 
ATOM     19  C   UNL     1       5.843   6.179  -0.160  1.00  0.00    -0.017 A 
ATOM     20  C   UNL     1       3.511   9.691  -0.354  1.00  0.00     0.009 A 
ATOM     21  C   UNL     1       3.843   7.438   0.493  1.00  0.00    -0.002 A 
ATOM     22  C   UNL     1       5.401   5.109   0.620  1.00  0.00     0.009 A 
ATOM     23  C   UNL     1       3.069   8.619   0.423  1.00  0.00    -0.017 A 
ATOM     24  C   UNL     1       3.393   6.344   1.283  1.00  0.00    -0.009 A 
ATOM     25  C   UNL     1       4.200   5.191   1.326  1.00  0.00     0.010 A 
ATOM     26  C   UNL     1       1.866   8.709   1.131  1.00  0.00     0.009 A 
ATOM     27  C   UNL     1       2.164   6.453   1.992  1.00  0.00    -0.010 A 
ATOM     28  C   UNL     1       1.420   7.640   1.902  1.00  0.00     0.010 A 
BRANCH  27  29
ATOM     29  C   UNL     1       1.626   5.363   2.822  1.00  0.00    -0.018 A 
ATOM     30  C   UNL     1       1.779   5.382   4.215  1.00  0.00     0.012 A 
ATOM     31  C   UNL     1       0.958   4.277   2.237  1.00  0.00     0.012 A 
ATOM     32  C   UNL     1       1.272   4.341   4.999  1.00  0.00     0.047 A 
ATOM     33  C   UNL     1       0.452   3.235   3.023  1.00  0.00     0.047 A 
ATOM     34  C   UNL     1       0.607   3.264   4.409  1.00  0.00     0.118 A 
BRANCH  34  35
ATOM     35  O   UNL     1       0.165   2.315   5.289  1.00  0.00    -0.497 OA
ATOM     36  C   UNL     1       0.179   0.965   4.842  1.00  0.00     0.278 C 
ENDBRANCH  34  35
ENDBRANCH  27  29
ENDBRANCH   4  13
TORSDOF 6
ENDMDL
MODEL 12
REMARK VINA RESULT:   -15.657      3.126      8.382
REMARK INTER + INTRA:         -21.091
REMARK INTER:                 -19.237
REMARK INTRA:                  -1.854
REMARK CONF_INDEPENDENT:        3.580
REMARK UNBOUND:                -1.854
REMARK SMILES CC[NH2+]Cc1ccc(-c2ccc3ccc4c(-c5ccc(OC)cc5)ccc5ccc2c3c54)cc1
REMARK SMILES IDX 5 1 6 2 7 3 8 4 33 5 34 6 4 7 3 8 2 11 1 12 9 13 10 14 30 15
REMARK SMILES IDX 11 16 29 17 31 18 12 19 28 20 32 21 13 22 27 23 15 24 14 25
REMARK SMILES IDX 26 26 16 27 25 28 17 29 18 30 24 31 19 32 23 33 20 34 21 35
REMARK SMILES IDX 22 36
REMARK H PARENT 3 9 3 10
REMARK Flexibility Score: inf
ROOT
ATOM      1  C   UNL     1      -1.388   9.385   0.436  1.00  0.00     0.006 A 
ATOM      2  C   UNL     1      -0.575  10.068  -0.482  1.00  0.00     0.010 A 
ATOM      3  C   UNL     1       0.356   9.371  -1.258  1.00  0.00     0.009 A 
ATOM      4  C   UNL     1       0.496   7.982  -1.135  1.00  0.00    -0.018 A 
ATOM      5  C   UNL     1      -0.319   7.303  -0.218  1.00  0.00     0.009 A 
ATOM      6  C   UNL     1      -1.250   7.995   0.561  1.00  0.00     0.010 A 
ENDROOT
BRANCH   1   7
ATOM      7  C   UNL     1      -2.410  10.127   1.250  1.00  0.00     0.297 C 
BRANCH   7   8
ATOM      8  N   UNL     1      -2.151  10.050   2.721  1.00  0.00    -0.343 N 
ATOM      9  H   UNL     1      -1.141  10.157   2.874  1.00  0.00     0.346 HD
ATOM     10  H   UNL     1      -2.599  10.858   3.170  1.00  0.00     0.346 HD
BRANCH   8  11
ATOM     11  C   UNL     1      -2.620   8.796   3.386  1.00  0.00     0.257 C 
ATOM     12  C   UNL     1      -1.422   8.069   3.962  1.00  0.00     0.071 C 
ENDBRANCH   8  11
ENDBRANCH   7   8
ENDBRANCH   1   7
BRANCH   4  13
ATOM     13  C   UNL     1       1.478   7.250  -1.951  1.00  0.00    -0.010 A 
ATOM     14  C   UNL     1       1.160   5.942  -2.351  1.00  0.00     0.010 A 
ATOM     15  C   UNL     1       2.727   7.815  -2.337  1.00  0.00    -0.009 A 
ATOM     16  C   UNL     1       2.050   5.190  -3.114  1.00  0.00     0.009 A 
ATOM     17  C   UNL     1       3.119   9.123  -1.985  1.00  0.00     0.010 A 
ATOM     18  C   UNL     1       3.632   7.040  -3.114  1.00  0.00    -0.002 A 
ATOM     19  C   UNL     1       3.283   5.725  -3.497  1.00  0.00    -0.017 A 
ATOM     20  C   UNL     1       4.350   9.650  -2.375  1.00  0.00     0.009 A 
ATOM     21  C   UNL     1       4.893   7.572  -3.513  1.00  0.00    -0.002 A 
ATOM     22  C   UNL     1       4.174   4.967  -4.258  1.00  0.00     0.009 A 
ATOM     23  C   UNL     1       5.242   8.889  -3.132  1.00  0.00    -0.017 A 
ATOM     24  C   UNL     1       5.801   6.796  -4.283  1.00  0.00    -0.009 A 
ATOM     25  C   UNL     1       5.408   5.492  -4.642  1.00  0.00     0.010 A 
ATOM     26  C   UNL     1       6.476   9.424  -3.516  1.00  0.00     0.009 A 
ATOM     27  C   UNL     1       7.054   7.355  -4.660  1.00  0.00    -0.010 A 
ATOM     28  C   UNL     1       7.369   8.666  -4.268  1.00  0.00     0.010 A 
BRANCH  27  29
ATOM     29  C   UNL     1       8.051   6.614  -5.449  1.00  0.00    -0.018 A 
ATOM     30  C   UNL     1       9.358   6.442  -4.971  1.00  0.00     0.012 A 
ATOM     31  C   UNL     1       7.720   6.073  -6.700  1.00  0.00     0.012 A 
ATOM     32  C   UNL     1      10.303   5.742  -5.727  1.00  0.00     0.047 A 
ATOM     33  C   UNL     1       8.668   5.374  -7.456  1.00  0.00     0.047 A 
ATOM     34  C   UNL     1       9.965   5.206  -6.971  1.00  0.00     0.118 A 
BRANCH  34  35
ATOM     35  O   UNL     1      10.983   4.549  -7.605  1.00  0.00    -0.497 OA
ATOM     36  C   UNL     1      10.829   3.147  -7.790  1.00  0.00     0.278 C 
ENDBRANCH  34  35
ENDBRANCH  27  29
ENDBRANCH   4  13
TORSDOF 6
REMARK SMILES CC[NH2+]Cc1ccc(-c2ccc3ccc4c(-c5ccc(OC)cc5)ccc5ccc2c3c54)cc1
REMARK SMILES IDX 5 1 6 2 7 3 8 4 33 5 34 6 4 7 3 8 2 11 1 12 9 13 10 14 30 15
REMARK SMILES IDX 11 16 29 17 31 18 12 19 28 20 32 21 13 22 27 23 15 24 14 25
REMARK SMILES IDX 26 26 16 27 25 28 17 29 18 30 24 31 19 32 23 33 20 34 21 35
REMARK SMILES IDX 22 36
REMARK H PARENT 3 9 3 10
REMARK Flexibility Score: inf
ROOT
ATOM      1  C   UNL     1       1.457  10.342   3.568  1.00  0.00     0.006 A 
ATOM      2  C   UNL     1       1.559  10.437   2.172  1.00  0.00     0.010 A 
ATOM      3  C   UNL     1       2.054   9.364   1.424  1.00  0.00     0.009 A 
ATOM      4  C   UNL     1       2.456   8.177   2.051  1.00  0.00    -0.018 A 
ATOM      5  C   UNL     1       2.351   8.086   3.447  1.00  0.00     0.009 A 
ATOM      6  C   UNL     1       1.859   9.156   4.199  1.00  0.00     0.010 A 
ENDROOT
BRANCH   1   7
ATOM      7  C   UNL     1       0.898  11.483   4.371  1.00  0.00     0.297 C 
BRANCH   7   8
ATOM      8  N   UNL     1       1.857  12.623   4.508  1.00  0.00    -0.343 N 
ATOM      9  H   UNL     1       1.751  13.016   5.451  1.00  0.00     0.346 HD
ATOM     10  H   UNL     1       2.813  12.249   4.457  1.00  0.00     0.346 HD
BRANCH   8  11
ATOM     11  C   UNL     1       1.700  13.714   3.498  1.00  0.00     0.257 C 
ATOM     12  C   UNL     1       0.384  13.523   2.772  1.00  0.00     0.071 C 
ENDBRANCH   8  11
ENDBRANCH   7   8
ENDBRANCH   1   7
BRANCH   4  13
ATOM     13  C   UNL     1       2.978   7.049   1.263  1.00  0.00    -0.010 A 
ATOM     14  C   UNL     1       2.176   5.903   1.139  1.00  0.00     0.010 A 
ATOM     15  C   UNL     1       4.258   7.078   0.638  1.00  0.00    -0.009 A 
ATOM     16  C   UNL     1       2.615   4.796   0.417  1.00  0.00     0.009 A 
ATOM     17  C   UNL     1       5.120   8.191   0.708  1.00  0.00     0.010 A 
ATOM     18  C   UNL     1       4.701   5.943  -0.095  1.00  0.00    -0.002 A 
ATOM     19  C   UNL     1       3.869   4.803  -0.198  1.00  0.00    -0.017 A 
ATOM     20  C   UNL     1       6.369   8.190   0.088  1.00  0.00     0.009 A 
ATOM     21  C   UNL     1       5.978   5.935  -0.728  1.00  0.00    -0.002 A 
ATOM     22  C   UNL     1       4.308   3.690  -0.916  1.00  0.00     0.009 A 
ATOM     23  C   UNL     1       6.809   7.075  -0.627  1.00  0.00    -0.017 A 
ATOM     24  C   UNL     1       6.425   4.798  -1.455  1.00  0.00    -0.009 A 
ATOM     25  C   UNL     1       5.561   3.688  -1.531  1.00  0.00     0.010 A 
ATOM     26  C   UNL     1       8.064   7.082  -1.243  1.00  0.00     0.009 A 
ATOM     27  C   UNL     1       7.708   4.821  -2.071  1.00  0.00    -0.010 A 
ATOM     28  C   UNL     1       8.507   5.969  -1.953  1.00  0.00     0.010 A 
BRANCH  27  29
ATOM     29  C   UNL     1       8.245   3.682  -2.831  1.00  0.00    -0.018 A 
ATOM     30  C   UNL     1       9.468   3.097  -2.476  1.00  0.00     0.012 A 
ATOM     31  C   UNL     1       7.552   3.164  -3.935  1.00  0.00     0.012 A 
ATOM     32  C   UNL     1       9.978   2.019  -3.206  1.00  0.00     0.047 A 
ATOM     33  C   UNL     1       8.064   2.086  -4.666  1.00  0.00     0.047 A 
ATOM     34  C   UNL     1       9.281   1.508  -4.303  1.00  0.00     0.118 A 
BRANCH  34  35
ATOM     35  O   UNL     1       9.892   0.457  -4.929  1.00  0.00    -0.497 OA
ATOM     36  C   UNL     1       9.389   0.087  -6.207  1.00  0.00     0.278 C 
ENDBRANCH  34  35
ENDBRANCH  27  29
ENDBRANCH   4  13
TORSDOF 6
ENDMDL
