MODEL 1
REMARK VINA RESULT:    -7.022      0.000      0.000
REMARK INTER + INTRA:          -9.553
REMARK INTER:                  -8.812
REMARK INTRA:                  -0.741
REMARK CONF_INDEPENDENT:        1.790
REMARK UNBOUND:                -0.741
REMARK SMILES CC[NH2+]Cc1ccc(-c2ccc3ccc4c(-c5ccc(OC)cc5)ccc5ccc2c3c54)cc1
REMARK SMILES IDX 5 1 6 2 7 3 8 4 33 5 34 6 4 7 3 8 2 11 1 12 9 13 10 14 30 15
REMARK SMILES IDX 11 16 29 17 31 18 12 19 28 20 32 21 13 22 27 23 15 24 14 25
REMARK SMILES IDX 26 26 16 27 25 28 17 29 18 30 24 31 19 32 23 33 20 34 21 35
REMARK SMILES IDX 22 36
REMARK H PARENT 3 9 3 10
REMARK Flexibility Score: inf
ROOT
ATOM      1  C   UNL     1       6.589   9.903  -6.860  1.00  0.00     0.006 A 
ATOM      2  C   UNL     1       5.804   8.821  -7.288  1.00  0.00     0.010 A 
ATOM      3  C   UNL     1       5.261   7.930  -6.358  1.00  0.00     0.009 A 
ATOM      4  C   UNL     1       5.489   8.097  -4.985  1.00  0.00    -0.018 A 
ATOM      5  C   UNL     1       6.272   9.180  -4.562  1.00  0.00     0.009 A 
ATOM      6  C   UNL     1       6.818  10.074  -5.487  1.00  0.00     0.010 A 
ENDROOT
BRANCH   1   7
ATOM      7  C   UNL     1       7.148  10.880  -7.854  1.00  0.00     0.297 C 
BRANCH   7   8
ATOM      8  N   UNL     1       6.554  12.247  -7.726  1.00  0.00    -0.343 N 
ATOM      9  H   UNL     1       5.766  12.315  -8.381  1.00  0.00     0.346 HD
ATOM     10  H   UNL     1       6.155  12.338  -6.783  1.00  0.00     0.346 HD
BRANCH   8  11
ATOM     11  C   UNL     1       7.499  13.379  -7.970  1.00  0.00     0.257 C 
ATOM     12  C   UNL     1       8.139  13.776  -6.655  1.00  0.00     0.071 C 
ENDBRANCH   8  11
ENDBRANCH   7   8
ENDBRANCH   1   7
BRANCH   4  13
ATOM     13  C   UNL     1       4.918   7.156  -4.008  1.00  0.00    -0.010 A 
ATOM     14  C   UNL     1       4.857   5.797  -4.356  1.00  0.00     0.010 A 
ATOM     15  C   UNL     1       4.423   7.575  -2.740  1.00  0.00    -0.009 A 
ATOM     16  C   UNL     1       4.318   4.857  -3.482  1.00  0.00     0.009 A 
ATOM     17  C   UNL     1       4.455   8.918  -2.310  1.00  0.00     0.010 A 
ATOM     18  C   UNL     1       3.871   6.611  -1.853  1.00  0.00    -0.002 A 
ATOM     19  C   UNL     1       3.823   5.250  -2.236  1.00  0.00    -0.017 A 
ATOM     20  C   UNL     1       3.961   9.301  -1.063  1.00  0.00     0.009 A 
ATOM     21  C   UNL     1       3.362   6.996  -0.579  1.00  0.00    -0.002 A 
ATOM     22  C   UNL     1       3.278   4.306  -1.365  1.00  0.00     0.009 A 
ATOM     23  C   UNL     1       3.413   8.356  -0.194  1.00  0.00    -0.017 A 
ATOM     24  C   UNL     1       2.803   6.033   0.306  1.00  0.00    -0.009 A 
ATOM     25  C   UNL     1       2.779   4.690  -0.120  1.00  0.00     0.010 A 
ATOM     26  C   UNL     1       2.917   8.748   1.053  1.00  0.00     0.009 A 
ATOM     27  C   UNL     1       2.299   6.452   1.568  1.00  0.00    -0.010 A 
ATOM     28  C   UNL     1       2.367   7.809   1.920  1.00  0.00     0.010 A 
BRANCH  27  29
ATOM     29  C   UNL     1       1.698   5.518   2.534  1.00  0.00    -0.018 A 
ATOM     30  C   UNL     1       2.050   5.565   3.889  1.00  0.00     0.012 A 
ATOM     31  C   UNL     1       0.768   4.554   2.117  1.00  0.00     0.012 A 
ATOM     32  C   UNL     1       1.481   4.671   4.801  1.00  0.00     0.047 A 
ATOM     33  C   UNL     1       0.200   3.659   3.031  1.00  0.00     0.047 A 
ATOM     34  C   UNL     1       0.555   3.715   4.379  1.00  0.00     0.118 A 
BRANCH  34  35
ATOM     35  O   UNL     1       0.079   2.903   5.372  1.00  0.00    -0.497 OA
ATOM     36  C   UNL     1      -0.133   1.536   5.041  1.00  0.00     0.278 C 
ENDBRANCH  34  35
ENDBRANCH  27  29
ENDBRANCH   4  13
TORSDOF 6
ENDMDL
MODEL 2
REMARK VINA RESULT:    -6.848      5.564      7.054
REMARK INTER + INTRA:          -9.407
REMARK INTER:                  -8.638
REMARK INTRA:                  -0.769
REMARK CONF_INDEPENDENT:        1.790
REMARK UNBOUND:                -0.769
REMARK SMILES CC[NH2+]Cc1ccc(-c2ccc3ccc4c(-c5ccc(OC)cc5)ccc5ccc2c3c54)cc1
REMARK SMILES IDX 5 1 6 2 7 3 8 4 33 5 34 6 4 7 3 8 2 11 1 12 9 13 10 14 30 15
REMARK SMILES IDX 11 16 29 17 31 18 12 19 28 20 32 21 13 22 27 23 15 24 14 25
REMARK SMILES IDX 26 26 16 27 25 28 17 29 18 30 24 31 19 32 23 33 20 34 21 35
REMARK SMILES IDX 22 36
REMARK H PARENT 3 9 3 10
REMARK Flexibility Score: inf
ROOT
ATOM      1  C   UNL     1       7.515   1.607  -3.613  1.00  0.00     0.006 A 
ATOM      2  C   UNL     1       7.779   1.779  -2.246  1.00  0.00     0.010 A 
ATOM      3  C   UNL     1       7.261   2.881  -1.558  1.00  0.00     0.009 A 
ATOM      4  C   UNL     1       6.472   3.833  -2.218  1.00  0.00    -0.018 A 
ATOM      5  C   UNL     1       6.210   3.656  -3.584  1.00  0.00     0.009 A 
ATOM      6  C   UNL     1       6.726   2.557  -4.277  1.00  0.00     0.010 A 
ENDROOT
BRANCH   1   7
ATOM      7  C   UNL     1       8.045   0.408  -4.347  1.00  0.00     0.297 C 
BRANCH   7   8
ATOM      8  N   UNL     1       7.305   0.129  -5.617  1.00  0.00    -0.343 N 
ATOM      9  H   UNL     1       6.895  -0.810  -5.548  1.00  0.00     0.346 HD
ATOM     10  H   UNL     1       6.517   0.785  -5.682  1.00  0.00     0.346 HD
BRANCH   8  11
ATOM     11  C   UNL     1       8.123   0.219  -6.865  1.00  0.00     0.257 C 
ATOM     12  C   UNL     1       7.699   1.450  -7.641  1.00  0.00     0.071 C 
ENDBRANCH   8  11
ENDBRANCH   7   8
ENDBRANCH   1   7
BRANCH   4  13
ATOM     13  C   UNL     1       5.929   4.993  -1.494  1.00  0.00    -0.010 A 
ATOM     14  C   UNL     1       6.750   5.621  -0.544  1.00  0.00     0.010 A 
ATOM     15  C   UNL     1       4.612   5.487  -1.716  1.00  0.00    -0.009 A 
ATOM     16  C   UNL     1       6.293   6.716   0.185  1.00  0.00     0.009 A 
ATOM     17  C   UNL     1       3.728   4.920  -2.657  1.00  0.00     0.010 A 
ATOM     18  C   UNL     1       4.151   6.604  -0.967  1.00  0.00    -0.002 A 
ATOM     19  C   UNL     1       5.002   7.212  -0.015  1.00  0.00    -0.017 A 
ATOM     20  C   UNL     1       2.442   5.423  -2.853  1.00  0.00     0.009 A 
ATOM     21  C   UNL     1       2.836   7.121  -1.160  1.00  0.00    -0.002 A 
ATOM     22  C   UNL     1       4.545   8.307   0.721  1.00  0.00     0.009 A 
ATOM     23  C   UNL     1       1.986   6.515  -2.114  1.00  0.00    -0.017 A 
ATOM     24  C   UNL     1       2.372   8.233  -0.406  1.00  0.00    -0.009 A 
ATOM     25  C   UNL     1       3.257   8.806   0.529  1.00  0.00     0.010 A 
ATOM     26  C   UNL     1       0.694   7.012  -2.313  1.00  0.00     0.009 A 
ATOM     27  C   UNL     1       1.053   8.722  -0.619  1.00  0.00    -0.010 A 
ATOM     28  C   UNL     1       0.235   8.099  -1.575  1.00  0.00     0.010 A 
BRANCH  27  29
ATOM     29  C   UNL     1       0.496   9.861   0.127  1.00  0.00    -0.018 A 
ATOM     30  C   UNL     1       0.635   9.941   1.520  1.00  0.00     0.012 A 
ATOM     31  C   UNL     1      -0.196  10.885  -0.536  1.00  0.00     0.012 A 
ATOM     32  C   UNL     1       0.098  11.023   2.225  1.00  0.00     0.047 A 
ATOM     33  C   UNL     1      -0.734  11.966   0.172  1.00  0.00     0.047 A 
ATOM     34  C   UNL     1      -0.589  12.039   1.557  1.00  0.00     0.118 A 
BRANCH  34  35
ATOM     35  O   UNL     1      -1.064  13.034   2.366  1.00  0.00    -0.497 OA
ATOM     36  C   UNL     1      -0.592  13.054   3.708  1.00  0.00     0.278 C 
ENDBRANCH  34  35
ENDBRANCH  27  29
ENDBRANCH   4  13
TORSDOF 6
ENDMDL
MODEL 3
REMARK VINA RESULT:    -6.837      3.724      6.194
REMARK INTER + INTRA:          -9.520
REMARK INTER:                  -8.627
REMARK INTRA:                  -0.893
REMARK CONF_INDEPENDENT:        1.790
REMARK UNBOUND:                -0.893
REMARK SMILES CC[NH2+]Cc1ccc(-c2ccc3ccc4c(-c5ccc(OC)cc5)ccc5ccc2c3c54)cc1
REMARK SMILES IDX 5 1 6 2 7 3 8 4 33 5 34 6 4 7 3 8 2 11 1 12 9 13 10 14 30 15
REMARK SMILES IDX 11 16 29 17 31 18 12 19 28 20 32 21 13 22 27 23 15 24 14 25
REMARK SMILES IDX 26 26 16 27 25 28 17 29 18 30 24 31 19 32 23 33 20 34 21 35
REMARK SMILES IDX 22 36
REMARK H PARENT 3 9 3 10
REMARK Flexibility Score: inf
ROOT
ATOM      1  C   UNL     1       6.295   3.164  -6.859  1.00  0.00     0.006 A 
ATOM      2  C   UNL     1       6.689   3.114  -5.513  1.00  0.00     0.010 A 
ATOM      3  C   UNL     1       6.267   4.100  -4.616  1.00  0.00     0.009 A 
ATOM      4  C   UNL     1       5.447   5.154  -5.040  1.00  0.00    -0.018 A 
ATOM      5  C   UNL     1       5.055   5.199  -6.386  1.00  0.00     0.009 A 
ATOM      6  C   UNL     1       5.474   4.218  -7.288  1.00  0.00     0.010 A 
ENDROOT
BRANCH   1   7
ATOM      7  C   UNL     1       6.722   2.090  -7.819  1.00  0.00     0.297 C 
BRANCH   7   8
ATOM      8  N   UNL     1       6.235   0.731  -7.427  1.00  0.00    -0.343 N 
ATOM      9  H   UNL     1       5.904   0.779  -6.456  1.00  0.00     0.346 HD
ATOM     10  H   UNL     1       5.413   0.505  -8.001  1.00  0.00     0.346 HD
BRANCH   8  11
ATOM     11  C   UNL     1       7.240  -0.368  -7.553  1.00  0.00     0.257 C 
ATOM     12  C   UNL     1       7.680  -0.791  -6.167  1.00  0.00     0.071 C 
ENDBRANCH   8  11
ENDBRANCH   7   8
ENDBRANCH   1   7
BRANCH   4  13
ATOM     13  C   UNL     1       5.005   6.192  -4.095  1.00  0.00    -0.010 A 
ATOM     14  C   UNL     1       5.188   7.536  -4.456  1.00  0.00     0.010 A 
ATOM     15  C   UNL     1       4.414   5.880  -2.837  1.00  0.00    -0.009 A 
ATOM     16  C   UNL     1       4.804   8.566  -3.602  1.00  0.00     0.009 A 
ATOM     17  C   UNL     1       4.187   4.558  -2.402  1.00  0.00     0.010 A 
ATOM     18  C   UNL     1       4.026   6.937  -1.969  1.00  0.00    -0.002 A 
ATOM     19  C   UNL     1       4.227   8.281  -2.362  1.00  0.00    -0.017 A 
ATOM     20  C   UNL     1       3.608   4.283  -1.164  1.00  0.00     0.009 A 
ATOM     21  C   UNL     1       3.436   6.662  -0.700  1.00  0.00    -0.002 A 
ATOM     22  C   UNL     1       3.847   9.316  -1.507  1.00  0.00     0.009 A 
ATOM     23  C   UNL     1       3.232   5.319  -0.307  1.00  0.00    -0.017 A 
ATOM     24  C   UNL     1       3.055   7.718   0.172  1.00  0.00    -0.009 A 
ATOM     25  C   UNL     1       3.274   9.039  -0.265  1.00  0.00     0.010 A 
ATOM     26  C   UNL     1       2.655   5.034   0.934  1.00  0.00     0.009 A 
ATOM     27  C   UNL     1       2.473   7.409   1.433  1.00  0.00    -0.010 A 
ATOM     28  C   UNL     1       2.283   6.065   1.791  1.00  0.00     0.010 A 
BRANCH  27  29
ATOM     29  C   UNL     1       2.061   8.444   2.394  1.00  0.00    -0.018 A 
ATOM     30  C   UNL     1       1.302   9.546   1.978  1.00  0.00     0.012 A 
ATOM     31  C   UNL     1       2.429   8.357   3.745  1.00  0.00     0.012 A 
ATOM     32  C   UNL     1       0.919  10.530   2.894  1.00  0.00     0.047 A 
ATOM     33  C   UNL     1       2.046   9.344   4.661  1.00  0.00     0.047 A 
ATOM     34  C   UNL     1       1.288  10.435   4.238  1.00  0.00     0.118 A 
BRANCH  34  35
ATOM     35  O   UNL     1       0.850  11.465   5.024  1.00  0.00    -0.497 OA
ATOM     36  C   UNL     1       1.399  12.752   4.765  1.00  0.00     0.278 C 
ENDBRANCH  34  35
ENDBRANCH  27  29
ENDBRANCH   4  13
TORSDOF 6
ENDMDL
MODEL 4
REMARK VINA RESULT:    -6.793      2.416      3.032
REMARK INTER + INTRA:          -9.261
REMARK INTER:                  -8.583
REMARK INTRA:                  -0.678
REMARK CONF_INDEPENDENT:        1.790
REMARK UNBOUND:                -0.678
REMARK SMILES CC[NH2+]Cc1ccc(-c2ccc3ccc4c(-c5ccc(OC)cc5)ccc5ccc2c3c54)cc1
REMARK SMILES IDX 5 1 6 2 7 3 8 4 33 5 34 6 4 7 3 8 2 11 1 12 9 13 10 14 30 15
REMARK SMILES IDX 11 16 29 17 31 18 12 19 28 20 32 21 13 22 27 23 15 24 14 25
REMARK SMILES IDX 26 26 16 27 25 28 17 29 18 30 24 31 19 32 23 33 20 34 21 35
REMARK SMILES IDX 22 36
REMARK H PARENT 3 9 3 10
REMARK Flexibility Score: inf
ROOT
ATOM      1  C   UNL     1       8.060  11.082  -3.939  1.00  0.00     0.006 A 
ATOM      2  C   UNL     1       8.080  10.363  -2.735  1.00  0.00     0.010 A 
ATOM      3  C   UNL     1       7.105   9.397  -2.470  1.00  0.00     0.009 A 
ATOM      4  C   UNL     1       6.090   9.128  -3.400  1.00  0.00    -0.018 A 
ATOM      5  C   UNL     1       6.075   9.847  -4.603  1.00  0.00     0.009 A 
ATOM      6  C   UNL     1       7.047  10.815  -4.872  1.00  0.00     0.010 A 
ENDROOT
BRANCH   1   7
ATOM      7  C   UNL     1       9.124  12.099  -4.239  1.00  0.00     0.297 C 
BRANCH   7   8
ATOM      8  N   UNL     1       9.255  13.137  -3.170  1.00  0.00    -0.343 N 
ATOM      9  H   UNL     1       8.804  13.998  -3.503  1.00  0.00     0.346 HD
ATOM     10  H   UNL     1       8.716  12.827  -2.351  1.00  0.00     0.346 HD
BRANCH   8  11
ATOM     11  C   UNL     1      10.655  13.445  -2.748  1.00  0.00     0.257 C 
ATOM     12  C   UNL     1      11.049  12.502  -1.629  1.00  0.00     0.071 C 
ENDBRANCH   8  11
ENDBRANCH   7   8
ENDBRANCH   1   7
BRANCH   4  13
ATOM     13  C   UNL     1       5.064   8.112  -3.120  1.00  0.00    -0.010 A 
ATOM     14  C   UNL     1       4.518   7.407  -4.205  1.00  0.00     0.010 A 
ATOM     15  C   UNL     1       4.604   7.829  -1.801  1.00  0.00    -0.009 A 
ATOM     16  C   UNL     1       3.534   6.442  -4.010  1.00  0.00     0.009 A 
ATOM     17  C   UNL     1       5.105   8.485  -0.658  1.00  0.00     0.010 A 
ATOM     18  C   UNL     1       3.597   6.844  -1.610  1.00  0.00    -0.002 A 
ATOM     19  C   UNL     1       3.067   6.155  -2.725  1.00  0.00    -0.017 A 
ATOM     20  C   UNL     1       4.636   8.190   0.622  1.00  0.00     0.009 A 
ATOM     21  C   UNL     1       3.111   6.540  -0.305  1.00  0.00    -0.002 A 
ATOM     22  C   UNL     1       2.077   5.190  -2.534  1.00  0.00     0.009 A 
ATOM     23  C   UNL     1       3.643   7.227   0.811  1.00  0.00    -0.017 A 
ATOM     24  C   UNL     1       2.099   5.560  -0.113  1.00  0.00    -0.009 A 
ATOM     25  C   UNL     1       1.603   4.900  -1.255  1.00  0.00     0.010 A 
ATOM     26  C   UNL     1       3.175   6.939   2.097  1.00  0.00     0.009 A 
ATOM     27  C   UNL     1       1.631   5.285   1.202  1.00  0.00    -0.010 A 
ATOM     28  C   UNL     1       2.182   5.983   2.288  1.00  0.00     0.010 A 
BRANCH  27  29
ATOM     29  C   UNL     1       0.581   4.293   1.481  1.00  0.00    -0.018 A 
ATOM     30  C   UNL     1       0.748   3.339   2.494  1.00  0.00     0.012 A 
ATOM     31  C   UNL     1      -0.605   4.273   0.733  1.00  0.00     0.012 A 
ATOM     32  C   UNL     1      -0.250   2.394   2.751  1.00  0.00     0.047 A 
ATOM     33  C   UNL     1      -1.603   3.325   0.990  1.00  0.00     0.047 A 
ATOM     34  C   UNL     1      -1.429   2.382   2.002  1.00  0.00     0.118 A 
BRANCH  34  35
ATOM     35  O   UNL     1      -2.319   1.405   2.355  1.00  0.00    -0.497 OA
ATOM     36  C   UNL     1      -3.083   0.820   1.307  1.00  0.00     0.278 C 
ENDBRANCH  34  35
ENDBRANCH  27  29
ENDBRANCH   4  13
TORSDOF 6
ENDMDL
MODEL 5
REMARK VINA RESULT:    -6.750      4.903      6.462
REMARK INTER + INTRA:          -9.413
REMARK INTER:                  -8.540
REMARK INTRA:                  -0.873
REMARK CONF_INDEPENDENT:        1.790
REMARK UNBOUND:                -0.873
REMARK SMILES CC[NH2+]Cc1ccc(-c2ccc3ccc4c(-c5ccc(OC)cc5)ccc5ccc2c3c54)cc1
REMARK SMILES IDX 5 1 6 2 7 3 8 4 33 5 34 6 4 7 3 8 2 11 1 12 9 13 10 14 30 15
REMARK SMILES IDX 11 16 29 17 31 18 12 19 28 20 32 21 13 22 27 23 15 24 14 25
REMARK SMILES IDX 26 26 16 27 25 28 17 29 18 30 24 31 19 32 23 33 20 34 21 35
REMARK SMILES IDX 22 36
REMARK H PARENT 3 9 3 10
REMARK Flexibility Score: inf
ROOT
ATOM      1  C   UNL     1       7.018   1.919  -6.052  1.00  0.00     0.006 A 
ATOM      2  C   UNL     1       7.233   1.388  -4.771  1.00  0.00     0.010 A 
ATOM      3  C   UNL     1       6.928   2.141  -3.633  1.00  0.00     0.009 A 
ATOM      4  C   UNL     1       6.403   3.435  -3.748  1.00  0.00    -0.018 A 
ATOM      5  C   UNL     1       6.187   3.960  -5.030  1.00  0.00     0.009 A 
ATOM      6  C   UNL     1       6.492   3.213  -6.171  1.00  0.00     0.010 A 
ENDROOT
BRANCH   1   7
ATOM      7  C   UNL     1       7.316   1.101  -7.277  1.00  0.00     0.297 C 
BRANCH   7   8
ATOM      8  N   UNL     1       6.183   0.209  -7.673  1.00  0.00    -0.343 N 
ATOM      9  H   UNL     1       5.841  -0.267  -6.829  1.00  0.00     0.346 HD
ATOM     10  H   UNL     1       5.409   0.799  -8.004  1.00  0.00     0.346 HD
BRANCH   8  11
ATOM     11  C   UNL     1       6.507  -0.809  -8.717  1.00  0.00     0.257 C 
ATOM     12  C   UNL     1       7.976  -0.697  -9.072  1.00  0.00     0.071 C 
ENDBRANCH   8  11
ENDBRANCH   7   8
ENDBRANCH   1   7
BRANCH   4  13
ATOM     13  C   UNL     1       6.084   4.226  -2.549  1.00  0.00    -0.010 A 
ATOM     14  C   UNL     1       6.994   4.203  -1.480  1.00  0.00     0.010 A 
ATOM     15  C   UNL     1       4.892   4.999  -2.436  1.00  0.00    -0.009 A 
ATOM     16  C   UNL     1       6.746   4.920  -0.313  1.00  0.00     0.009 A 
ATOM     17  C   UNL     1       3.932   5.082  -3.464  1.00  0.00     0.010 A 
ATOM     18  C   UNL     1       4.644   5.726  -1.239  1.00  0.00    -0.002 A 
ATOM     19  C   UNL     1       5.580   5.679  -0.180  1.00  0.00    -0.017 A 
ATOM     20  C   UNL     1       2.772   5.845  -3.325  1.00  0.00     0.009 A 
ATOM     21  C   UNL     1       3.459   6.504  -1.090  1.00  0.00    -0.002 A 
ATOM     22  C   UNL     1       5.333   6.391   0.993  1.00  0.00     0.009 A 
ATOM     23  C   UNL     1       2.524   6.555  -2.149  1.00  0.00    -0.017 A 
ATOM     24  C   UNL     1       3.207   7.226   0.109  1.00  0.00    -0.009 A 
ATOM     25  C   UNL     1       4.170   7.149   1.135  1.00  0.00     0.010 A 
ATOM     26  C   UNL     1       1.357   7.314  -2.017  1.00  0.00     0.009 A 
ATOM     27  C   UNL     1       2.012   7.989   0.228  1.00  0.00    -0.010 A 
ATOM     28  C   UNL     1       1.106   8.020  -0.844  1.00  0.00     0.010 A 
BRANCH  27  29
ATOM     29  C   UNL     1       1.674   8.755   1.438  1.00  0.00    -0.018 A 
ATOM     30  C   UNL     1       1.560   8.117   2.680  1.00  0.00     0.012 A 
ATOM     31  C   UNL     1       1.449  10.138   1.373  1.00  0.00     0.012 A 
ATOM     32  C   UNL     1       1.232   8.848   3.826  1.00  0.00     0.047 A 
ATOM     33  C   UNL     1       1.120  10.869   2.521  1.00  0.00     0.047 A 
ATOM     34  C   UNL     1       1.010  10.225   3.754  1.00  0.00     0.118 A 
BRANCH  34  35
ATOM     35  O   UNL     1       0.695  10.816   4.946  1.00  0.00    -0.497 OA
ATOM     36  C   UNL     1       1.729  11.546   5.596  1.00  0.00     0.278 C 
ENDBRANCH  34  35
ENDBRANCH  27  29
ENDBRANCH   4  13
TORSDOF 6
ENDMDL
MODEL 6
REMARK VINA RESULT:    -6.610      4.794      7.419
REMARK INTER + INTRA:          -9.329
REMARK INTER:                  -8.400
REMARK INTRA:                  -0.929
REMARK CONF_INDEPENDENT:        1.790
REMARK UNBOUND:                -0.929
REMARK SMILES CC[NH2+]Cc1ccc(-c2ccc3ccc4c(-c5ccc(OC)cc5)ccc5ccc2c3c54)cc1
REMARK SMILES IDX 5 1 6 2 7 3 8 4 33 5 34 6 4 7 3 8 2 11 1 12 9 13 10 14 30 15
REMARK SMILES IDX 11 16 29 17 31 18 12 19 28 20 32 21 13 22 27 23 15 24 14 25
REMARK SMILES IDX 26 26 16 27 25 28 17 29 18 30 24 31 19 32 23 33 20 34 21 35
REMARK SMILES IDX 22 36
REMARK H PARENT 3 9 3 10
REMARK Flexibility Score: inf
ROOT
ATOM      1  C   UNL     1       7.977   2.146  -2.308  1.00  0.00     0.006 A 
ATOM      2  C   UNL     1       8.122   3.156  -1.345  1.00  0.00     0.010 A 
ATOM      3  C   UNL     1       7.245   4.245  -1.325  1.00  0.00     0.009 A 
ATOM      4  C   UNL     1       6.208   4.349  -2.262  1.00  0.00    -0.018 A 
ATOM      5  C   UNL     1       6.066   3.336  -3.221  1.00  0.00     0.009 A 
ATOM      6  C   UNL     1       6.941   2.246  -3.247  1.00  0.00     0.010 A 
ENDROOT
BRANCH   1   7
ATOM      7  C   UNL     1       8.899   0.959  -2.314  1.00  0.00     0.297 C 
BRANCH   7   8
ATOM      8  N   UNL     1       9.179   0.432  -0.942  1.00  0.00    -0.343 N 
ATOM      9  H   UNL     1       8.705   1.040  -0.263  1.00  0.00     0.346 HD
ATOM     10  H   UNL     1       8.741  -0.493  -0.856  1.00  0.00     0.346 HD
BRANCH   8  11
ATOM     11  C   UNL     1      10.626   0.327  -0.582  1.00  0.00     0.257 C 
ATOM     12  C   UNL     1      11.050   1.599   0.124  1.00  0.00     0.071 C 
ENDBRANCH   8  11
ENDBRANCH   7   8
ENDBRANCH   1   7
BRANCH   4  13
ATOM     13  C   UNL     1       5.287   5.496  -2.240  1.00  0.00    -0.010 A 
ATOM     14  C   UNL     1       5.022   6.154  -3.452  1.00  0.00     0.010 A 
ATOM     15  C   UNL     1       4.670   5.961  -1.043  1.00  0.00    -0.009 A 
ATOM     16  C   UNL     1       4.170   7.254  -3.499  1.00  0.00     0.009 A 
ATOM     17  C   UNL     1       4.877   5.353   0.212  1.00  0.00     0.010 A 
ATOM     18  C   UNL     1       3.803   7.087  -1.098  1.00  0.00    -0.002 A 
ATOM     19  C   UNL     1       3.560   7.728  -2.335  1.00  0.00    -0.017 A 
ATOM     20  C   UNL     1       4.261   5.831   1.369  1.00  0.00     0.009 A 
ATOM     21  C   UNL     1       3.174   7.582   0.081  1.00  0.00    -0.002 A 
ATOM     22  C   UNL     1       2.710   8.834  -2.385  1.00  0.00     0.009 A 
ATOM     23  C   UNL     1       3.414   6.940   1.318  1.00  0.00    -0.017 A 
ATOM     24  C   UNL     1       2.312   8.712   0.029  1.00  0.00    -0.009 A 
ATOM     25  C   UNL     1       2.100   9.315  -1.226  1.00  0.00     0.010 A 
ATOM     26  C   UNL     1       2.804   7.415   2.483  1.00  0.00     0.009 A 
ATOM     27  C   UNL     1       1.704   9.184   1.225  1.00  0.00    -0.010 A 
ATOM     28  C   UNL     1       1.962   8.522   2.436  1.00  0.00     0.010 A 
BRANCH  27  29
ATOM     29  C   UNL     1       0.808  10.351   1.255  1.00  0.00    -0.018 A 
ATOM     30  C   UNL     1       1.058  11.424   2.122  1.00  0.00     0.012 A 
ATOM     31  C   UNL     1      -0.322  10.411   0.426  1.00  0.00     0.012 A 
ATOM     32  C   UNL     1       0.201  12.527   2.151  1.00  0.00     0.047 A 
ATOM     33  C   UNL     1      -1.180  11.516   0.457  1.00  0.00     0.047 A 
ATOM     34  C   UNL     1      -0.921  12.580   1.321  1.00  0.00     0.118 A 
BRANCH  34  35
ATOM     35  O   UNL     1      -1.675  13.714   1.452  1.00  0.00    -0.497 OA
ATOM     36  C   UNL     1      -2.489  14.078   0.344  1.00  0.00     0.278 C 
ENDBRANCH  34  35
ENDBRANCH  27  29
ENDBRANCH   4  13
TORSDOF 6
ENDMDL
MODEL 7
REMARK VINA RESULT:    -6.547      1.466      2.176
REMARK INTER + INTRA:          -9.240
REMARK INTER:                  -8.337
REMARK INTRA:                  -0.903
REMARK CONF_INDEPENDENT:        1.790
REMARK UNBOUND:                -0.903
REMARK SMILES CC[NH2+]Cc1ccc(-c2ccc3ccc4c(-c5ccc(OC)cc5)ccc5ccc2c3c54)cc1
REMARK SMILES IDX 5 1 6 2 7 3 8 4 33 5 34 6 4 7 3 8 2 11 1 12 9 13 10 14 30 15
REMARK SMILES IDX 11 16 29 17 31 18 12 19 28 20 32 21 13 22 27 23 15 24 14 25
REMARK SMILES IDX 26 26 16 27 25 28 17 29 18 30 24 31 19 32 23 33 20 34 21 35
REMARK SMILES IDX 22 36
REMARK H PARENT 3 9 3 10
REMARK Flexibility Score: inf
ROOT
ATOM      1  C   UNL     1       6.971  10.501  -6.242  1.00  0.00     0.006 A 
ATOM      2  C   UNL     1       6.179   9.343  -6.280  1.00  0.00     0.010 A 
ATOM      3  C   UNL     1       5.843   8.676  -5.098  1.00  0.00     0.009 A 
ATOM      4  C   UNL     1       6.289   9.148  -3.856  1.00  0.00    -0.018 A 
ATOM      5  C   UNL     1       7.078  10.307  -3.822  1.00  0.00     0.009 A 
ATOM      6  C   UNL     1       7.419  10.977  -5.000  1.00  0.00     0.010 A 
ENDROOT
BRANCH   1   7
ATOM      7  C   UNL     1       7.309  11.237  -7.507  1.00  0.00     0.297 C 
BRANCH   7   8
ATOM      8  N   UNL     1       6.553  12.520  -7.654  1.00  0.00    -0.343 N 
ATOM      9  H   UNL     1       5.674  12.318  -8.145  1.00  0.00     0.346 HD
ATOM     10  H   UNL     1       6.292  12.850  -6.717  1.00  0.00     0.346 HD
BRANCH   8  11
ATOM     11  C   UNL     1       7.281  13.609  -8.374  1.00  0.00     0.257 C 
ATOM     12  C   UNL     1       8.669  13.745  -7.783  1.00  0.00     0.071 C 
ENDBRANCH   8  11
ENDBRANCH   7   8
ENDBRANCH   1   7
BRANCH   4  13
ATOM     13  C   UNL     1       5.936   8.444  -2.613  1.00  0.00    -0.010 A 
ATOM     14  C   UNL     1       6.953   8.213  -1.673  1.00  0.00     0.010 A 
ATOM     15  C   UNL     1       4.614   7.988  -2.340  1.00  0.00    -0.009 A 
ATOM     16  C   UNL     1       6.688   7.542  -0.482  1.00  0.00     0.009 A 
ATOM     17  C   UNL     1       3.536   8.186  -3.226  1.00  0.00     0.010 A 
ATOM     18  C   UNL     1       4.352   7.301  -1.123  1.00  0.00    -0.002 A 
ATOM     19  C   UNL     1       5.400   7.082  -0.198  1.00  0.00    -0.017 A 
ATOM     20  C   UNL     1       2.252   7.726  -2.934  1.00  0.00     0.009 A 
ATOM     21  C   UNL     1       3.043   6.825  -0.820  1.00  0.00    -0.002 A 
ATOM     22  C   UNL     1       5.140   6.405   0.994  1.00  0.00     0.009 A 
ATOM     23  C   UNL     1       1.994   7.046  -1.742  1.00  0.00    -0.017 A 
ATOM     24  C   UNL     1       2.781   6.132   0.394  1.00  0.00    -0.009 A 
ATOM     25  C   UNL     1       3.857   5.939   1.283  1.00  0.00     0.010 A 
ATOM     26  C   UNL     1       0.705   6.585  -1.458  1.00  0.00     0.009 A 
ATOM     27  C   UNL     1       1.464   5.665   0.663  1.00  0.00    -0.010 A 
ATOM     28  C   UNL     1       0.445   5.903  -0.273  1.00  0.00     0.010 A 
BRANCH  27  29
ATOM     29  C   UNL     1       1.116   4.932   1.890  1.00  0.00    -0.018 A 
ATOM     30  C   UNL     1       0.470   3.690   1.823  1.00  0.00     0.012 A 
ATOM     31  C   UNL     1       1.411   5.465   3.154  1.00  0.00     0.012 A 
ATOM     32  C   UNL     1       0.135   3.001   2.993  1.00  0.00     0.047 A 
ATOM     33  C   UNL     1       1.074   4.774   4.324  1.00  0.00     0.047 A 
ATOM     34  C   UNL     1       0.434   3.538   4.247  1.00  0.00     0.118 A 
BRANCH  34  35
ATOM     35  O   UNL     1       0.049   2.762   5.306  1.00  0.00    -0.497 OA
ATOM     36  C   UNL     1       0.557   1.434   5.350  1.00  0.00     0.278 C 
ENDBRANCH  34  35
ENDBRANCH  27  29
ENDBRANCH   4  13
TORSDOF 6
ENDMDL
MODEL 8
REMARK VINA RESULT:    -6.430      4.462      9.030
REMARK INTER + INTRA:          -8.985
REMARK INTER:                  -8.220
REMARK INTRA:                  -0.765
REMARK CONF_INDEPENDENT:        1.790
REMARK UNBOUND:                -0.765
REMARK SMILES CC[NH2+]Cc1ccc(-c2ccc3ccc4c(-c5ccc(OC)cc5)ccc5ccc2c3c54)cc1
REMARK SMILES IDX 5 1 6 2 7 3 8 4 33 5 34 6 4 7 3 8 2 11 1 12 9 13 10 14 30 15
REMARK SMILES IDX 11 16 29 17 31 18 12 19 28 20 32 21 13 22 27 23 15 24 14 25
REMARK SMILES IDX 26 26 16 27 25 28 17 29 18 30 24 31 19 32 23 33 20 34 21 35
REMARK SMILES IDX 22 36
REMARK H PARENT 3 9 3 10
REMARK Flexibility Score: inf
ROOT
ATOM      1  C   UNL     1       1.312  10.187   3.305  1.00  0.00     0.006 A 
ATOM      2  C   UNL     1       2.042   9.079   3.760  1.00  0.00     0.010 A 
ATOM      3  C   UNL     1       2.475   8.100   2.862  1.00  0.00     0.009 A 
ATOM      4  C   UNL     1       2.191   8.205   1.493  1.00  0.00    -0.018 A 
ATOM      5  C   UNL     1       1.463   9.315   1.042  1.00  0.00     0.009 A 
ATOM      6  C   UNL     1       1.025  10.296   1.936  1.00  0.00     0.010 A 
ENDROOT
BRANCH   1   7
ATOM      7  C   UNL     1       0.871  11.257   4.264  1.00  0.00     0.297 C 
BRANCH   7   8
ATOM      8  N   UNL     1       1.858  12.374   4.386  1.00  0.00    -0.343 N 
ATOM      9  H   UNL     1       1.758  12.788   5.320  1.00  0.00     0.346 HD
ATOM     10  H   UNL     1       2.804  11.974   4.347  1.00  0.00     0.346 HD
BRANCH   8  11
ATOM     11  C   UNL     1       1.737  13.448   3.354  1.00  0.00     0.257 C 
ATOM     12  C   UNL     1       3.063  14.174   3.244  1.00  0.00     0.071 C 
ENDBRANCH   8  11
ENDBRANCH   7   8
ENDBRANCH   1   7
BRANCH   4  13
ATOM     13  C   UNL     1       2.646   7.172   0.549  1.00  0.00    -0.010 A 
ATOM     14  C   UNL     1       2.553   5.828   0.943  1.00  0.00     0.010 A 
ATOM     15  C   UNL     1       3.180   7.489  -0.733  1.00  0.00    -0.009 A 
ATOM     16  C   UNL     1       2.977   4.803   0.102  1.00  0.00     0.009 A 
ATOM     17  C   UNL     1       3.300   8.810  -1.209  1.00  0.00     0.010 A 
ATOM     18  C   UNL     1       3.615   6.437  -1.586  1.00  0.00    -0.002 A 
ATOM     19  C   UNL     1       3.509   5.094  -1.157  1.00  0.00    -0.017 A 
ATOM     20  C   UNL     1       3.830   9.092  -2.468  1.00  0.00     0.009 A 
ATOM     21  C   UNL     1       4.159   6.718  -2.873  1.00  0.00    -0.002 A 
ATOM     22  C   UNL     1       3.939   4.065  -1.995  1.00  0.00     0.009 A 
ATOM     23  C   UNL     1       4.262   8.061  -3.305  1.00  0.00    -0.017 A 
ATOM     24  C   UNL     1       4.600   5.668  -3.724  1.00  0.00    -0.009 A 
ATOM     25  C   UNL     1       4.474   4.346  -3.252  1.00  0.00     0.010 A 
ATOM     26  C   UNL     1       4.794   8.352  -4.565  1.00  0.00     0.009 A 
ATOM     27  C   UNL     1       5.144   5.983  -5.001  1.00  0.00    -0.010 A 
ATOM     28  C   UNL     1       5.230   7.326  -5.399  1.00  0.00     0.010 A 
BRANCH  27  29
ATOM     29  C   UNL     1       5.631   4.954  -5.934  1.00  0.00    -0.018 A 
ATOM     30  C   UNL     1       5.385   5.062  -7.309  1.00  0.00     0.012 A 
ATOM     31  C   UNL     1       6.341   3.839  -5.466  1.00  0.00     0.012 A 
ATOM     32  C   UNL     1       5.844   4.078  -8.190  1.00  0.00     0.047 A 
ATOM     33  C   UNL     1       6.798   2.854  -6.350  1.00  0.00     0.047 A 
ATOM     34  C   UNL     1       6.551   2.971  -7.717  1.00  0.00     0.118 A 
BRANCH  34  35
ATOM     35  O   UNL     1       6.939   2.085  -8.685  1.00  0.00    -0.497 OA
ATOM     36  C   UNL     1       6.365   0.785  -8.635  1.00  0.00     0.278 C 
ENDBRANCH  34  35
ENDBRANCH  27  29
ENDBRANCH   4  13
TORSDOF 6
ENDMDL
MODEL 9
REMARK VINA RESULT:    -6.307      4.050      6.497
REMARK INTER + INTRA:          -9.010
REMARK INTER:                  -8.097
REMARK INTRA:                  -0.913
REMARK CONF_INDEPENDENT:        1.790
REMARK UNBOUND:                -0.913
REMARK SMILES CC[NH2+]Cc1ccc(-c2ccc3ccc4c(-c5ccc(OC)cc5)ccc5ccc2c3c54)cc1
REMARK SMILES IDX 5 1 6 2 7 3 8 4 33 5 34 6 4 7 3 8 2 11 1 12 9 13 10 14 30 15
REMARK SMILES IDX 11 16 29 17 31 18 12 19 28 20 32 21 13 22 27 23 15 24 14 25
REMARK SMILES IDX 26 26 16 27 25 28 17 29 18 30 24 31 19 32 23 33 20 34 21 35
REMARK SMILES IDX 22 36
REMARK H PARENT 3 9 3 10
REMARK Flexibility Score: inf
ROOT
ATOM      1  C   UNL     1       7.181   2.160  -4.512  1.00  0.00     0.006 A 
ATOM      2  C   UNL     1       6.539   3.144  -5.279  1.00  0.00     0.010 A 
ATOM      3  C   UNL     1       6.034   4.297  -4.671  1.00  0.00     0.009 A 
ATOM      4  C   UNL     1       6.158   4.493  -3.289  1.00  0.00    -0.018 A 
ATOM      5  C   UNL     1       6.802   3.508  -2.526  1.00  0.00     0.009 A 
ATOM      6  C   UNL     1       7.308   2.353  -3.128  1.00  0.00     0.010 A 
ENDROOT
BRANCH   1   7
ATOM      7  C   UNL     1       7.751   0.934  -5.166  1.00  0.00     0.297 C 
BRANCH   7   8
ATOM      8  N   UNL     1       6.929   0.453  -6.320  1.00  0.00    -0.343 N 
ATOM      9  H   UNL     1       6.645  -0.515  -6.129  1.00  0.00     0.346 HD
ATOM     10  H   UNL     1       6.064   1.007  -6.352  1.00  0.00     0.346 HD
BRANCH   8  11
ATOM     11  C   UNL     1       7.602   0.516  -7.653  1.00  0.00     0.257 C 
ATOM     12  C   UNL     1       6.864   1.508  -8.529  1.00  0.00     0.071 C 
ENDBRANCH   8  11
ENDBRANCH   7   8
ENDBRANCH   1   7
BRANCH   4  13
ATOM     13  C   UNL     1       5.625   5.707  -2.650  1.00  0.00    -0.010 A 
ATOM     14  C   UNL     1       5.975   6.951  -3.199  1.00  0.00     0.010 A 
ATOM     15  C   UNL     1       4.782   5.662  -1.503  1.00  0.00    -0.009 A 
ATOM     16  C   UNL     1       5.515   8.138  -2.636  1.00  0.00     0.009 A 
ATOM     17  C   UNL     1       4.376   4.455  -0.896  1.00  0.00     0.010 A 
ATOM     18  C   UNL     1       4.317   6.878  -0.931  1.00  0.00    -0.002 A 
ATOM     19  C   UNL     1       4.692   8.114  -1.506  1.00  0.00    -0.017 A 
ATOM     20  C   UNL     1       3.552   4.441   0.229  1.00  0.00     0.009 A 
ATOM     21  C   UNL     1       3.477   6.870   0.221  1.00  0.00    -0.002 A 
ATOM     22  C   UNL     1       4.236   9.306  -0.941  1.00  0.00     0.009 A 
ATOM     23  C   UNL     1       3.100   5.634   0.796  1.00  0.00    -0.017 A 
ATOM     24  C   UNL     1       3.018   8.086   0.798  1.00  0.00    -0.009 A 
ATOM     25  C   UNL     1       3.417   9.291   0.187  1.00  0.00     0.010 A 
ATOM     26  C   UNL     1       2.276   5.611   1.925  1.00  0.00     0.009 A 
ATOM     27  C   UNL     1       2.185   8.043   1.950  1.00  0.00    -0.010 A 
ATOM     28  C   UNL     1       1.827   6.799   2.494  1.00  0.00     0.010 A 
BRANCH  27  29
ATOM     29  C   UNL     1       1.677   9.256   2.610  1.00  0.00    -0.018 A 
ATOM     30  C   UNL     1       1.757   9.400   4.002  1.00  0.00     0.012 A 
ATOM     31  C   UNL     1       1.092  10.288   1.863  1.00  0.00     0.012 A 
ATOM     32  C   UNL     1       1.267  10.552   4.625  1.00  0.00     0.047 A 
ATOM     33  C   UNL     1       0.600  11.440   2.489  1.00  0.00     0.047 A 
ATOM     34  C   UNL     1       0.687  11.577   3.874  1.00  0.00     0.118 A 
BRANCH  34  35
ATOM     35  O   UNL     1       0.247  12.643   4.608  1.00  0.00    -0.497 OA
ATOM     36  C   UNL     1       1.060  13.811   4.598  1.00  0.00     0.278 C 
ENDBRANCH  34  35
ENDBRANCH  27  29
ENDBRANCH   4  13
TORSDOF 6
ENDMDL
MODEL 10
REMARK VINA RESULT:    -6.268      2.811      3.459
REMARK INTER + INTRA:          -9.058
REMARK INTER:                  -8.057
REMARK INTRA:                  -1.001
REMARK CONF_INDEPENDENT:        1.790
REMARK UNBOUND:                -1.001
REMARK SMILES CC[NH2+]Cc1ccc(-c2ccc3ccc4c(-c5ccc(OC)cc5)ccc5ccc2c3c54)cc1
REMARK SMILES IDX 5 1 6 2 7 3 8 4 33 5 34 6 4 7 3 8 2 11 1 12 9 13 10 14 30 15
REMARK SMILES IDX 11 16 29 17 31 18 12 19 28 20 32 21 13 22 27 23 15 24 14 25
REMARK SMILES IDX 26 26 16 27 25 28 17 29 18 30 24 31 19 32 23 33 20 34 21 35
REMARK SMILES IDX 22 36
REMARK H PARENT 3 9 3 10
REMARK Flexibility Score: inf
ROOT
ATOM      1  C   UNL     1       8.419  10.959  -3.627  1.00  0.00     0.006 A 
ATOM      2  C   UNL     1       7.579  10.122  -4.378  1.00  0.00     0.010 A 
ATOM      3  C   UNL     1       6.844   9.112  -3.752  1.00  0.00     0.009 A 
ATOM      4  C   UNL     1       6.930   8.914  -2.367  1.00  0.00    -0.018 A 
ATOM      5  C   UNL     1       7.768   9.753  -1.620  1.00  0.00     0.009 A 
ATOM      6  C   UNL     1       8.507  10.765  -2.241  1.00  0.00     0.010 A 
ENDROOT
BRANCH   1   7
ATOM      7  C   UNL     1       9.187  12.065  -4.293  1.00  0.00     0.297 C 
BRANCH   7   8
ATOM      8  N   UNL     1       9.179  13.336  -3.505  1.00  0.00    -0.343 N 
ATOM      9  H   UNL     1       8.600  14.020  -4.007  1.00  0.00     0.346 HD
ATOM     10  H   UNL     1       8.705  13.158  -2.610  1.00  0.00     0.346 HD
BRANCH   8  11
ATOM     11  C   UNL     1      10.524  13.930  -3.238  1.00  0.00     0.257 C 
ATOM     12  C   UNL     1      11.358  12.929  -2.465  1.00  0.00     0.071 C 
ENDBRANCH   8  11
ENDBRANCH   7   8
ENDBRANCH   1   7
BRANCH   4  13
ATOM     13  C   UNL     1       6.156   7.849  -1.710  1.00  0.00    -0.010 A 
ATOM     14  C   UNL     1       6.857   6.887  -0.964  1.00  0.00     0.010 A 
ATOM     15  C   UNL     1       4.738   7.757  -1.811  1.00  0.00    -0.009 A 
ATOM     16  C   UNL     1       6.187   5.846  -0.327  1.00  0.00     0.009 A 
ATOM     17  C   UNL     1       3.959   8.685  -2.532  1.00  0.00     0.010 A 
ATOM     18  C   UNL     1       4.060   6.690  -1.160  1.00  0.00    -0.002 A 
ATOM     19  C   UNL     1       4.797   5.737  -0.420  1.00  0.00    -0.017 A 
ATOM     20  C   UNL     1       2.572   8.570  -2.616  1.00  0.00     0.009 A 
ATOM     21  C   UNL     1       2.643   6.565  -1.245  1.00  0.00    -0.002 A 
ATOM     22  C   UNL     1       4.129   4.689   0.216  1.00  0.00     0.009 A 
ATOM     23  C   UNL     1       1.905   7.520  -1.983  1.00  0.00    -0.017 A 
ATOM     24  C   UNL     1       1.965   5.494  -0.601  1.00  0.00    -0.009 A 
ATOM     25  C   UNL     1       2.742   4.571   0.126  1.00  0.00     0.010 A 
ATOM     26  C   UNL     1       0.514   7.410  -2.075  1.00  0.00     0.009 A 
ATOM     27  C   UNL     1       0.550   5.395  -0.710  1.00  0.00    -0.010 A 
ATOM     28  C   UNL     1      -0.152   6.361  -1.449  1.00  0.00     0.010 A 
BRANCH  27  29
ATOM     29  C   UNL     1      -0.223   4.312  -0.081  1.00  0.00    -0.018 A 
ATOM     30  C   UNL     1      -0.121   4.066   1.295  1.00  0.00     0.012 A 
ATOM     31  C   UNL     1      -1.068   3.496  -0.846  1.00  0.00     0.012 A 
ATOM     32  C   UNL     1      -0.852   3.032   1.886  1.00  0.00     0.047 A 
ATOM     33  C   UNL     1      -1.799   2.459  -0.252  1.00  0.00     0.047 A 
ATOM     34  C   UNL     1      -1.693   2.224   1.118  1.00  0.00     0.118 A 
BRANCH  34  35
ATOM     35  O   UNL     1      -2.346   1.249   1.821  1.00  0.00    -0.497 OA
ATOM     36  C   UNL     1      -1.551   0.406   2.645  1.00  0.00     0.278 C 
ENDBRANCH  34  35
ENDBRANCH  27  29
ENDBRANCH   4  13
TORSDOF 6
ENDMDL
MODEL 11
REMARK VINA RESULT:    -6.257      5.190      7.818
REMARK INTER + INTRA:          -9.103
REMARK INTER:                  -8.047
REMARK INTRA:                  -1.057
REMARK CONF_INDEPENDENT:        1.790
REMARK UNBOUND:                -1.057
REMARK SMILES CC[NH2+]Cc1ccc(-c2ccc3ccc4c(-c5ccc(OC)cc5)ccc5ccc2c3c54)cc1
REMARK SMILES IDX 5 1 6 2 7 3 8 4 33 5 34 6 4 7 3 8 2 11 1 12 9 13 10 14 30 15
REMARK SMILES IDX 11 16 29 17 31 18 12 19 28 20 32 21 13 22 27 23 15 24 14 25
REMARK SMILES IDX 26 26 16 27 25 28 17 29 18 30 24 31 19 32 23 33 20 34 21 35
REMARK SMILES IDX 22 36
REMARK H PARENT 3 9 3 10
REMARK Flexibility Score: inf
ROOT
ATOM      1  C   UNL     1       8.076   1.875  -2.340  1.00  0.00     0.006 A 
ATOM      2  C   UNL     1       8.144   2.763  -1.256  1.00  0.00     0.010 A 
ATOM      3  C   UNL     1       7.388   3.939  -1.256  1.00  0.00     0.009 A 
ATOM      4  C   UNL     1       6.550   4.254  -2.334  1.00  0.00    -0.018 A 
ATOM      5  C   UNL     1       6.483   3.362  -3.414  1.00  0.00     0.009 A 
ATOM      6  C   UNL     1       7.238   2.186  -3.420  1.00  0.00     0.010 A 
ENDROOT
BRANCH   1   7
ATOM      7  C   UNL     1       8.864   0.595  -2.329  1.00  0.00     0.297 C 
BRANCH   7   8
ATOM      8  N   UNL     1       9.179   0.117  -0.947  1.00  0.00    -0.343 N 
ATOM      9  H   UNL     1       8.712   0.742  -0.279  1.00  0.00     0.346 HD
ATOM     10  H   UNL     1       8.753  -0.810  -0.822  1.00  0.00     0.346 HD
BRANCH   8  11
ATOM     11  C   UNL     1      10.634   0.037  -0.616  1.00  0.00     0.257 C 
ATOM     12  C   UNL     1      11.160   1.438  -0.377  1.00  0.00     0.071 C 
ENDBRANCH   8  11
ENDBRANCH   7   8
ENDBRANCH   1   7
BRANCH   4  13
ATOM     13  C   UNL     1       5.757   5.493  -2.334  1.00  0.00    -0.010 A 
ATOM     14  C   UNL     1       6.400   6.690  -2.684  1.00  0.00     0.010 A 
ATOM     15  C   UNL     1       4.375   5.518  -1.985  1.00  0.00    -0.009 A 
ATOM     16  C   UNL     1       5.710   7.899  -2.692  1.00  0.00     0.009 A 
ATOM     17  C   UNL     1       3.653   4.360  -1.630  1.00  0.00     0.010 A 
ATOM     18  C   UNL     1       3.677   6.756  -1.992  1.00  0.00    -0.002 A 
ATOM     19  C   UNL     1       4.357   7.945  -2.348  1.00  0.00    -0.017 A 
ATOM     20  C   UNL     1       2.302   4.415  -1.291  1.00  0.00     0.009 A 
ATOM     21  C   UNL     1       2.296   6.819  -1.644  1.00  0.00    -0.002 A 
ATOM     22  C   UNL     1       3.669   9.159  -2.351  1.00  0.00     0.009 A 
ATOM     23  C   UNL     1       1.616   5.630  -1.291  1.00  0.00    -0.017 A 
ATOM     24  C   UNL     1       1.599   8.058  -1.644  1.00  0.00    -0.009 A 
ATOM     25  C   UNL     1       2.319   9.214  -2.006  1.00  0.00     0.010 A 
ATOM     26  C   UNL     1       0.261   5.677  -0.947  1.00  0.00     0.009 A 
ATOM     27  C   UNL     1       0.223   8.086  -1.286  1.00  0.00    -0.010 A 
ATOM     28  C   UNL     1      -0.424   6.888  -0.943  1.00  0.00     0.010 A 
BRANCH  27  29
ATOM     29  C   UNL     1      -0.565   9.329  -1.252  1.00  0.00    -0.018 A 
ATOM     30  C   UNL     1      -0.190  10.392  -0.420  1.00  0.00     0.012 A 
ATOM     31  C   UNL     1      -1.715   9.472  -2.043  1.00  0.00     0.012 A 
ATOM     32  C   UNL     1      -0.946  11.568  -0.387  1.00  0.00     0.047 A 
ATOM     33  C   UNL     1      -2.471  10.649  -2.008  1.00  0.00     0.047 A 
ATOM     34  C   UNL     1      -2.089  11.703  -1.179  1.00  0.00     0.118 A 
BRANCH  34  35
ATOM     35  O   UNL     1      -2.735  12.901  -1.048  1.00  0.00    -0.497 OA
ATOM     36  C   UNL     1      -2.727  13.764  -2.179  1.00  0.00     0.278 C 
ENDBRANCH  34  35
ENDBRANCH  27  29
ENDBRANCH   4  13
TORSDOF 6
ENDMDL
MODEL 12
REMARK VINA RESULT:    -6.144      5.551      8.772
REMARK INTER + INTRA:          -8.892
REMARK INTER:                  -7.934
REMARK INTRA:                  -0.958
REMARK CONF_INDEPENDENT:        1.790
REMARK UNBOUND:                -0.958
REMARK SMILES CC[NH2+]Cc1ccc(-c2ccc3ccc4c(-c5ccc(OC)cc5)ccc5ccc2c3c54)cc1
REMARK SMILES IDX 5 1 6 2 7 3 8 4 33 5 34 6 4 7 3 8 2 11 1 12 9 13 10 14 30 15
REMARK SMILES IDX 11 16 29 17 31 18 12 19 28 20 32 21 13 22 27 23 15 24 14 25
REMARK SMILES IDX 26 26 16 27 25 28 17 29 18 30 24 31 19 32 23 33 20 34 21 35
REMARK SMILES IDX 22 36
REMARK H PARENT 3 9 3 10
REMARK Flexibility Score: inf
ROOT
ATOM      1  C   UNL     1       1.299  10.113   3.198  1.00  0.00     0.006 A 
ATOM      2  C   UNL     1       1.214  10.610   1.889  1.00  0.00     0.010 A 
ATOM      3  C   UNL     1       1.545   9.797   0.800  1.00  0.00     0.009 A 
ATOM      4  C   UNL     1       1.968   8.475   0.994  1.00  0.00    -0.018 A 
ATOM      5  C   UNL     1       2.050   7.982   2.304  1.00  0.00     0.009 A 
ATOM      6  C   UNL     1       1.722   8.790   3.396  1.00  0.00     0.010 A 
ENDROOT
BRANCH   1   7
ATOM      7  C   UNL     1       0.915  10.974   4.368  1.00  0.00     0.297 C 
BRANCH   7   8
ATOM      8  N   UNL     1       1.853  12.120   4.581  1.00  0.00    -0.343 N 
ATOM      9  H   UNL     1       1.858  12.346   5.583  1.00  0.00     0.346 HD
ATOM     10  H   UNL     1       2.804  11.805   4.351  1.00  0.00     0.346 HD
BRANCH   8  11
ATOM     11  C   UNL     1       1.541  13.354   3.797  1.00  0.00     0.257 C 
ATOM     12  C   UNL     1       2.809  13.843   3.128  1.00  0.00     0.071 C 
ENDBRANCH   8  11
ENDBRANCH   7   8
ENDBRANCH   1   7
BRANCH   4  13
ATOM     13  C   UNL     1       2.318   7.622  -0.152  1.00  0.00    -0.010 A 
ATOM     14  C   UNL     1       1.389   7.506  -1.198  1.00  0.00     0.010 A 
ATOM     15  C   UNL     1       3.550   6.910  -0.230  1.00  0.00    -0.009 A 
ATOM     16  C   UNL     1       1.653   6.705  -2.306  1.00  0.00     0.009 A 
ATOM     17  C   UNL     1       4.539   6.978   0.772  1.00  0.00     0.010 A 
ATOM     18  C   UNL     1       3.812   6.092  -1.363  1.00  0.00    -0.002 A 
ATOM     19  C   UNL     1       2.853   5.996  -2.398  1.00  0.00    -0.017 A 
ATOM     20  C   UNL     1       5.736   6.269   0.671  1.00  0.00     0.009 A 
ATOM     21  C   UNL     1       5.031   5.362  -1.471  1.00  0.00    -0.002 A 
ATOM     22  C   UNL     1       3.112   5.190  -3.508  1.00  0.00     0.009 A 
ATOM     23  C   UNL     1       5.992   5.460  -0.438  1.00  0.00    -0.017 A 
ATOM     24  C   UNL     1       5.291   4.538  -2.600  1.00  0.00    -0.009 A 
ATOM     25  C   UNL     1       4.306   4.476  -3.606  1.00  0.00     0.010 A 
ATOM     26  C   UNL     1       7.193   4.750  -0.531  1.00  0.00     0.009 A 
ATOM     27  C   UNL     1       6.516   3.819  -2.675  1.00  0.00    -0.010 A 
ATOM     28  C   UNL     1       7.449   3.940  -1.633  1.00  0.00     0.010 A 
BRANCH  27  29
ATOM     29  C   UNL     1       6.854   2.938  -3.804  1.00  0.00    -0.018 A 
ATOM     30  C   UNL     1       6.723   3.386  -5.126  1.00  0.00     0.012 A 
ATOM     31  C   UNL     1       7.305   1.628  -3.584  1.00  0.00     0.012 A 
ATOM     32  C   UNL     1       7.039   2.544  -6.195  1.00  0.00     0.047 A 
ATOM     33  C   UNL     1       7.620   0.785  -4.657  1.00  0.00     0.047 A 
ATOM     34  C   UNL     1       7.488   1.241  -5.968  1.00  0.00     0.118 A 
BRANCH  34  35
ATOM     35  O   UNL     1       7.759   0.525  -7.101  1.00  0.00    -0.497 OA
ATOM     36  C   UNL     1       6.648   0.152  -7.909  1.00  0.00     0.278 C 
ENDBRANCH  34  35
ENDBRANCH  27  29
ENDBRANCH   4  13
TORSDOF 6
ENDMDL
MODEL 13
REMARK VINA RESULT:    -6.101      5.588      8.561
REMARK INTER + INTRA:          -9.013
REMARK INTER:                  -7.891
REMARK INTRA:                  -1.122
REMARK CONF_INDEPENDENT:        1.790
REMARK UNBOUND:                -1.122
REMARK SMILES CC[NH2+]Cc1ccc(-c2ccc3ccc4c(-c5ccc(OC)cc5)ccc5ccc2c3c54)cc1
REMARK SMILES IDX 5 1 6 2 7 3 8 4 33 5 34 6 4 7 3 8 2 11 1 12 9 13 10 14 30 15
REMARK SMILES IDX 11 16 29 17 31 18 12 19 28 20 32 21 13 22 27 23 15 24 14 25
REMARK SMILES IDX 26 26 16 27 25 28 17 29 18 30 24 31 19 32 23 33 20 34 21 35
REMARK SMILES IDX 22 36
REMARK H PARENT 3 9 3 10
REMARK Flexibility Score: inf
ROOT
ATOM      1  C   UNL     1       1.316  10.687   3.509  1.00  0.00     0.006 A 
ATOM      2  C   UNL     1       1.268  10.842   2.116  1.00  0.00     0.010 A 
ATOM      3  C   UNL     1       1.575   9.769   1.273  1.00  0.00     0.009 A 
ATOM      4  C   UNL     1       1.937   8.523   1.802  1.00  0.00    -0.018 A 
ATOM      5  C   UNL     1       1.981   8.372   3.195  1.00  0.00     0.009 A 
ATOM      6  C   UNL     1       1.676   9.441   4.042  1.00  0.00     0.010 A 
ENDROOT
BRANCH   1   7
ATOM      7  C   UNL     1       0.956  11.829   4.417  1.00  0.00     0.297 C 
BRANCH   7   8
ATOM      8  N   UNL     1       2.055  12.836   4.549  1.00  0.00    -0.343 N 
ATOM      9  H   UNL     1       2.080  13.155   5.525  1.00  0.00     0.346 HD
ATOM     10  H   UNL     1       2.950  12.362   4.377  1.00  0.00     0.346 HD
BRANCH   8  11
ATOM     11  C   UNL     1       1.946  14.021   3.644  1.00  0.00     0.257 C 
ATOM     12  C   UNL     1       3.250  14.184   2.890  1.00  0.00     0.071 C 
ENDBRANCH   8  11
ENDBRANCH   7   8
ENDBRANCH   1   7
BRANCH   4  13
ATOM     13  C   UNL     1       2.262   7.395   0.914  1.00  0.00    -0.010 A 
ATOM     14  C   UNL     1       1.203   6.615   0.422  1.00  0.00     0.010 A 
ATOM     15  C   UNL     1       3.599   7.068   0.549  1.00  0.00    -0.009 A 
ATOM     16  C   UNL     1       1.443   5.526  -0.413  1.00  0.00     0.009 A 
ATOM     17  C   UNL     1       4.717   7.804   0.992  1.00  0.00     0.010 A 
ATOM     18  C   UNL     1       3.837   5.953  -0.301  1.00  0.00    -0.002 A 
ATOM     19  C   UNL     1       2.748   5.186  -0.777  1.00  0.00    -0.017 A 
ATOM     20  C   UNL     1       6.016   7.459   0.621  1.00  0.00     0.009 A 
ATOM     21  C   UNL     1       5.163   5.594  -0.681  1.00  0.00    -0.002 A 
ATOM     22  C   UNL     1       2.985   4.092  -1.609  1.00  0.00     0.009 A 
ATOM     23  C   UNL     1       6.252   6.362  -0.208  1.00  0.00    -0.017 A 
ATOM     24  C   UNL     1       5.402   4.475  -1.526  1.00  0.00    -0.009 A 
ATOM     25  C   UNL     1       4.285   3.743  -1.975  1.00  0.00     0.010 A 
ATOM     26  C   UNL     1       7.558   6.021  -0.573  1.00  0.00     0.009 A 
ATOM     27  C   UNL     1       6.738   4.141  -1.882  1.00  0.00    -0.010 A 
ATOM     28  C   UNL     1       7.797   4.925  -1.397  1.00  0.00     0.010 A 
BRANCH  27  29
ATOM     29  C   UNL     1       7.068   2.993  -2.743  1.00  0.00    -0.018 A 
ATOM     30  C   UNL     1       6.650   2.958  -4.080  1.00  0.00     0.012 A 
ATOM     31  C   UNL     1       7.798   1.906  -2.241  1.00  0.00     0.012 A 
ATOM     32  C   UNL     1       6.960   1.863  -4.891  1.00  0.00     0.047 A 
ATOM     33  C   UNL     1       8.107   0.809  -3.055  1.00  0.00     0.047 A 
ATOM     34  C   UNL     1       7.689   0.784  -4.385  1.00  0.00     0.118 A 
BRANCH  34  35
ATOM     35  O   UNL     1       7.921  -0.221  -5.283  1.00  0.00    -0.497 OA
ATOM     36  C   UNL     1       7.567   0.032  -6.638  1.00  0.00     0.278 C 
ENDBRANCH  34  35
ENDBRANCH  27  29
ENDBRANCH   4  13
TORSDOF 6
ENDMDL
MODEL 14
REMARK VINA RESULT:    -6.060      4.637      8.343
REMARK INTER + INTRA:          -8.580
REMARK INTER:                  -7.850
REMARK INTRA:                  -0.729
REMARK CONF_INDEPENDENT:        1.790
REMARK UNBOUND:                -0.729
REMARK SMILES CC[NH2+]Cc1ccc(-c2ccc3ccc4c(-c5ccc(OC)cc5)ccc5ccc2c3c54)cc1
REMARK SMILES IDX 5 1 6 2 7 3 8 4 33 5 34 6 4 7 3 8 2 11 1 12 9 13 10 14 30 15
REMARK SMILES IDX 11 16 29 17 31 18 12 19 28 20 32 21 13 22 27 23 15 24 14 25
REMARK SMILES IDX 26 26 16 27 25 28 17 29 18 30 24 31 19 32 23 33 20 34 21 35
REMARK SMILES IDX 22 36
REMARK H PARENT 3 9 3 10
REMARK Flexibility Score: inf
ROOT
ATOM      1  C   UNL     1      -0.191  10.916   0.475  1.00  0.00     0.006 A 
ATOM      2  C   UNL     1      -0.432  10.042  -0.596  1.00  0.00     0.010 A 
ATOM      3  C   UNL     1       0.380   8.921  -0.791  1.00  0.00     0.009 A 
ATOM      4  C   UNL     1       1.447   8.648   0.076  1.00  0.00    -0.018 A 
ATOM      5  C   UNL     1       1.683   9.523   1.146  1.00  0.00     0.009 A 
ATOM      6  C   UNL     1       0.876  10.646   1.344  1.00  0.00     0.010 A 
ENDROOT
BRANCH   1   7
ATOM      7  C   UNL     1      -1.080  12.105   0.704  1.00  0.00     0.297 C 
BRANCH   7   8
ATOM      8  N   UNL     1      -0.468  13.389   0.242  1.00  0.00    -0.343 N 
ATOM      9  H   UNL     1      -0.678  14.113   0.940  1.00  0.00     0.346 HD
ATOM     10  H   UNL     1       0.554  13.277   0.241  1.00  0.00     0.346 HD
BRANCH   8  11
ATOM     11  C   UNL     1      -0.912  13.859  -1.105  1.00  0.00     0.257 C 
ATOM     12  C   UNL     1      -1.974  12.914  -1.629  1.00  0.00     0.071 C 
ENDBRANCH   8  11
ENDBRANCH   7   8
ENDBRANCH   1   7
BRANCH   4  13
ATOM     13  C   UNL     1       2.302   7.469  -0.132  1.00  0.00    -0.010 A 
ATOM     14  C   UNL     1       2.579   6.651   0.975  1.00  0.00     0.010 A 
ATOM     15  C   UNL     1       2.858   7.139  -1.401  1.00  0.00    -0.009 A 
ATOM     16  C   UNL     1       3.391   5.527   0.850  1.00  0.00     0.009 A 
ATOM     17  C   UNL     1       2.622   7.901  -2.563  1.00  0.00     0.010 A 
ATOM     18  C   UNL     1       3.688   5.991  -1.521  1.00  0.00    -0.002 A 
ATOM     19  C   UNL     1       3.950   5.190  -0.385  1.00  0.00    -0.017 A 
ATOM     20  C   UNL     1       3.182   7.556  -3.793  1.00  0.00     0.009 A 
ATOM     21  C   UNL     1       4.265   5.634  -2.775  1.00  0.00    -0.002 A 
ATOM     22  C   UNL     1       4.767   4.065  -0.506  1.00  0.00     0.009 A 
ATOM     23  C   UNL     1       4.002   6.433  -3.912  1.00  0.00    -0.017 A 
ATOM     24  C   UNL     1       5.101   4.490  -2.895  1.00  0.00    -0.009 A 
ATOM     25  C   UNL     1       5.331   3.723  -1.735  1.00  0.00     0.010 A 
ATOM     26  C   UNL     1       4.561   6.095  -5.148  1.00  0.00     0.009 A 
ATOM     27  C   UNL     1       5.666   4.166  -4.159  1.00  0.00    -0.010 A 
ATOM     28  C   UNL     1       5.382   4.978  -5.269  1.00  0.00     0.010 A 
BRANCH  27  29
ATOM     29  C   UNL     1       6.548   3.005  -4.362  1.00  0.00    -0.018 A 
ATOM     30  C   UNL     1       6.554   2.315  -5.582  1.00  0.00     0.012 A 
ATOM     31  C   UNL     1       7.393   2.557  -3.336  1.00  0.00     0.012 A 
ATOM     32  C   UNL     1       7.389   1.209  -5.767  1.00  0.00     0.047 A 
ATOM     33  C   UNL     1       8.227   1.449  -3.523  1.00  0.00     0.047 A 
ATOM     34  C   UNL     1       8.228   0.770  -4.741  1.00  0.00     0.118 A 
BRANCH  34  35
ATOM     35  O   UNL     1       8.989  -0.322  -5.054  1.00  0.00    -0.497 OA
ATOM     36  C   UNL     1       9.318  -0.507  -6.426  1.00  0.00     0.278 C 
ENDBRANCH  34  35
ENDBRANCH  27  29
ENDBRANCH   4  13
TORSDOF 6
ENDMDL
MODEL 15
REMARK VINA RESULT:    -6.056      4.364     10.713
REMARK INTER + INTRA:          -8.685
REMARK INTER:                  -7.845
REMARK INTRA:                  -0.840
REMARK CONF_INDEPENDENT:        1.790
REMARK UNBOUND:                -0.840
REMARK SMILES CC[NH2+]Cc1ccc(-c2ccc3ccc4c(-c5ccc(OC)cc5)ccc5ccc2c3c54)cc1
REMARK SMILES IDX 5 1 6 2 7 3 8 4 33 5 34 6 4 7 3 8 2 11 1 12 9 13 10 14 30 15
REMARK SMILES IDX 11 16 29 17 31 18 12 19 28 20 32 21 13 22 27 23 15 24 14 25
REMARK SMILES IDX 26 26 16 27 25 28 17 29 18 30 24 31 19 32 23 33 20 34 21 35
REMARK SMILES IDX 22 36
REMARK H PARENT 3 9 3 10
REMARK Flexibility Score: inf
ROOT
ATOM      1  C   UNL     1      -0.697   3.083   1.779  1.00  0.00     0.006 A 
ATOM      2  C   UNL     1      -0.936   3.753   0.570  1.00  0.00     0.010 A 
ATOM      3  C   UNL     1      -0.061   4.750   0.128  1.00  0.00     0.009 A 
ATOM      4  C   UNL     1       1.068   5.099   0.881  1.00  0.00    -0.018 A 
ATOM      5  C   UNL     1       1.305   4.425   2.088  1.00  0.00     0.009 A 
ATOM      6  C   UNL     1       0.433   3.429   2.535  1.00  0.00     0.010 A 
ENDROOT
BRANCH   1   7
ATOM      7  C   UNL     1      -1.619   1.990   2.242  1.00  0.00     0.297 C 
BRANCH   7   8
ATOM      8  N   UNL     1      -0.950   0.654   2.311  1.00  0.00    -0.343 N 
ATOM      9  H   UNL     1      -1.568  -0.035   1.866  1.00  0.00     0.346 HD
ATOM     10  H   UNL     1      -0.098   0.689   1.737  1.00  0.00     0.346 HD
BRANCH   8  11
ATOM     11  C   UNL     1      -0.598   0.186   3.686  1.00  0.00     0.257 C 
ATOM     12  C   UNL     1       0.911   0.163   3.824  1.00  0.00     0.071 C 
ENDBRANCH   8  11
ENDBRANCH   7   8
ENDBRANCH   1   7
BRANCH   4  13
ATOM     13  C   UNL     1       1.987   6.149   0.416  1.00  0.00    -0.010 A 
ATOM     14  C   UNL     1       2.318   7.181   1.308  1.00  0.00     0.010 A 
ATOM     15  C   UNL     1       2.540   6.158  -0.898  1.00  0.00    -0.009 A 
ATOM     16  C   UNL     1       3.172   8.212   0.927  1.00  0.00     0.009 A 
ATOM     17  C   UNL     1       2.266   5.155  -1.851  1.00  0.00     0.010 A 
ATOM     18  C   UNL     1       3.409   7.215  -1.281  1.00  0.00    -0.002 A 
ATOM     19  C   UNL     1       3.719   8.241  -0.359  1.00  0.00    -0.017 A 
ATOM     20  C   UNL     1       2.818   5.190  -3.131  1.00  0.00     0.009 A 
ATOM     21  C   UNL     1       3.975   7.258  -2.589  1.00  0.00    -0.002 A 
ATOM     22  C   UNL     1       4.571   9.279  -0.739  1.00  0.00     0.009 A 
ATOM     23  C   UNL     1       3.668   6.230  -3.512  1.00  0.00    -0.017 A 
ATOM     24  C   UNL     1       4.839   8.319  -2.976  1.00  0.00    -0.009 A 
ATOM     25  C   UNL     1       5.119   9.316  -2.021  1.00  0.00     0.010 A 
ATOM     26  C   UNL     1       4.215   6.260  -4.798  1.00  0.00     0.009 A 
ATOM     27  C   UNL     1       5.382   8.334  -4.291  1.00  0.00    -0.010 A 
ATOM     28  C   UNL     1       5.059   7.298  -5.181  1.00  0.00     0.010 A 
BRANCH  27  29
ATOM     29  C   UNL     1       6.276   9.401  -4.770  1.00  0.00    -0.018 A 
ATOM     30  C   UNL     1       7.235   9.967  -3.919  1.00  0.00     0.012 A 
ATOM     31  C   UNL     1       6.179   9.883  -6.084  1.00  0.00     0.012 A 
ATOM     32  C   UNL     1       8.076  10.985  -4.377  1.00  0.00     0.047 A 
ATOM     33  C   UNL     1       7.022  10.903  -6.540  1.00  0.00     0.047 A 
ATOM     34  C   UNL     1       7.975  11.459  -5.687  1.00  0.00     0.118 A 
BRANCH  34  35
ATOM     35  O   UNL     1       8.855  12.456  -6.003  1.00  0.00    -0.497 OA
ATOM     36  C   UNL     1       8.650  13.718  -5.380  1.00  0.00     0.278 C 
ENDBRANCH  34  35
ENDBRANCH  27  29
ENDBRANCH   4  13
TORSDOF 6
ENDMDL
MODEL 16
REMARK VINA RESULT:    -6.018      4.363     10.819
REMARK INTER + INTRA:          -8.739
REMARK INTER:                  -7.808
REMARK INTRA:                  -0.931
REMARK CONF_INDEPENDENT:        1.790
REMARK UNBOUND:                -0.931
REMARK SMILES CC[NH2+]Cc1ccc(-c2ccc3ccc4c(-c5ccc(OC)cc5)ccc5ccc2c3c54)cc1
REMARK SMILES IDX 5 1 6 2 7 3 8 4 33 5 34 6 4 7 3 8 2 11 1 12 9 13 10 14 30 15
REMARK SMILES IDX 11 16 29 17 31 18 12 19 28 20 32 21 13 22 27 23 15 24 14 25
REMARK SMILES IDX 26 26 16 27 25 28 17 29 18 30 24 31 19 32 23 33 20 34 21 35
REMARK SMILES IDX 22 36
REMARK H PARENT 3 9 3 10
REMARK Flexibility Score: inf
ROOT
ATOM      1  C   UNL     1       0.723   4.094   3.787  1.00  0.00     0.006 A 
ATOM      2  C   UNL     1       1.677   5.084   4.067  1.00  0.00     0.010 A 
ATOM      3  C   UNL     1       2.165   5.905   3.045  1.00  0.00     0.009 A 
ATOM      4  C   UNL     1       1.714   5.755   1.727  1.00  0.00    -0.018 A 
ATOM      5  C   UNL     1       0.759   4.765   1.452  1.00  0.00     0.009 A 
ATOM      6  C   UNL     1       0.269   3.942   2.469  1.00  0.00     0.010 A 
ENDROOT
BRANCH   1   7
ATOM      7  C   UNL     1       0.174   3.231   4.888  1.00  0.00     0.297 C 
BRANCH   7   8
ATOM      8  N   UNL     1       0.657   1.817   4.815  1.00  0.00    -0.343 N 
ATOM      9  H   UNL     1       1.679   1.834   4.711  1.00  0.00     0.346 HD
ATOM     10  H   UNL     1       0.467   1.364   5.718  1.00  0.00     0.346 HD
BRANCH   8  11
ATOM     11  C   UNL     1       0.062   0.995   3.718  1.00  0.00     0.257 C 
ATOM     12  C   UNL     1       1.093  -0.010   3.244  1.00  0.00     0.071 C 
ENDBRANCH   8  11
ENDBRANCH   7   8
ENDBRANCH   1   7
BRANCH   4  13
ATOM     13  C   UNL     1       2.230   6.618   0.653  1.00  0.00    -0.010 A 
ATOM     14  C   UNL     1       2.107   8.009   0.806  1.00  0.00     0.010 A 
ATOM     15  C   UNL     1       2.834   6.096  -0.527  1.00  0.00    -0.009 A 
ATOM     16  C   UNL     1       2.564   8.881  -0.179  1.00  0.00     0.009 A 
ATOM     17  C   UNL     1       3.003   4.715  -0.754  1.00  0.00     0.010 A 
ATOM     18  C   UNL     1       3.296   6.992  -1.530  1.00  0.00    -0.002 A 
ATOM     19  C   UNL     1       3.154   8.387  -1.345  1.00  0.00    -0.017 A 
ATOM     20  C   UNL     1       3.596   4.230  -1.920  1.00  0.00     0.009 A 
ATOM     21  C   UNL     1       3.900   6.503  -2.724  1.00  0.00    -0.002 A 
ATOM     22  C   UNL     1       3.606   9.264  -2.332  1.00  0.00     0.009 A 
ATOM     23  C   UNL     1       4.045   5.108  -2.908  1.00  0.00    -0.017 A 
ATOM     24  C   UNL     1       4.355   7.399  -3.731  1.00  0.00    -0.009 A 
ATOM     25  C   UNL     1       4.194   8.779  -3.501  1.00  0.00     0.010 A 
ATOM     26  C   UNL     1       4.636   4.615  -4.075  1.00  0.00     0.009 A 
ATOM     27  C   UNL     1       4.950   6.878  -4.914  1.00  0.00    -0.010 A 
ATOM     28  C   UNL     1       5.080   5.488  -5.064  1.00  0.00     0.010 A 
BRANCH  27  29
ATOM     29  C   UNL     1       5.436   7.738  -6.004  1.00  0.00    -0.018 A 
ATOM     30  C   UNL     1       6.203   8.878  -5.729  1.00  0.00     0.012 A 
ATOM     31  C   UNL     1       5.134   7.442  -7.342  1.00  0.00     0.012 A 
ATOM     32  C   UNL     1       6.657   9.695  -6.769  1.00  0.00     0.047 A 
ATOM     33  C   UNL     1       5.588   8.262  -8.381  1.00  0.00     0.047 A 
ATOM     34  C   UNL     1       6.353   9.393  -8.098  1.00  0.00     0.118 A 
BRANCH  34  35
ATOM     35  O   UNL     1       6.857  10.275  -9.013  1.00  0.00    -0.497 OA
ATOM     36  C   UNL     1       6.931  11.640  -8.619  1.00  0.00     0.278 C 
ENDBRANCH  34  35
ENDBRANCH  27  29
ENDBRANCH   4  13
TORSDOF 6
ENDMDL
MODEL 17
REMARK VINA RESULT:    -5.958      4.686     10.506
REMARK INTER + INTRA:          -8.573
REMARK INTER:                  -7.748
REMARK INTRA:                  -0.825
REMARK CONF_INDEPENDENT:        1.790
REMARK UNBOUND:                -0.825
REMARK SMILES CC[NH2+]Cc1ccc(-c2ccc3ccc4c(-c5ccc(OC)cc5)ccc5ccc2c3c54)cc1
REMARK SMILES IDX 5 1 6 2 7 3 8 4 33 5 34 6 4 7 3 8 2 11 1 12 9 13 10 14 30 15
REMARK SMILES IDX 11 16 29 17 31 18 12 19 28 20 32 21 13 22 27 23 15 24 14 25
REMARK SMILES IDX 26 26 16 27 25 28 17 29 18 30 24 31 19 32 23 33 20 34 21 35
REMARK SMILES IDX 22 36
REMARK H PARENT 3 9 3 10
REMARK Flexibility Score: inf
ROOT
ATOM      1  C   UNL     1      -0.567   3.029   2.008  1.00  0.00     0.006 A 
ATOM      2  C   UNL     1       0.461   3.801   2.569  1.00  0.00     0.010 A 
ATOM      3  C   UNL     1       1.112   4.775   1.807  1.00  0.00     0.009 A 
ATOM      4  C   UNL     1       0.752   5.000   0.471  1.00  0.00    -0.018 A 
ATOM      5  C   UNL     1      -0.277   4.227  -0.086  1.00  0.00     0.009 A 
ATOM      6  C   UNL     1      -0.930   3.251   0.672  1.00  0.00     0.010 A 
ENDROOT
BRANCH   1   7
ATOM      7  C   UNL     1      -1.288   2.002   2.834  1.00  0.00     0.297 C 
BRANCH   7   8
ATOM      8  N   UNL     1      -0.851   0.602   2.536  1.00  0.00    -0.343 N 
ATOM      9  H   UNL     1      -1.670   0.073   2.215  1.00  0.00     0.346 HD
ATOM     10  H   UNL     1      -0.197   0.631   1.744  1.00  0.00     0.346 HD
BRANCH   8  11
ATOM     11  C   UNL     1      -0.211  -0.122   3.676  1.00  0.00     0.257 C 
ATOM     12  C   UNL     1       1.290  -0.129   3.472  1.00  0.00     0.071 C 
ENDBRANCH   8  11
ENDBRANCH   7   8
ENDBRANCH   1   7
BRANCH   4  13
ATOM     13  C   UNL     1       1.438   6.025  -0.331  1.00  0.00    -0.010 A 
ATOM     14  C   UNL     1       0.669   6.797  -1.216  1.00  0.00     0.010 A 
ATOM     15  C   UNL     1       2.843   6.250  -0.247  1.00  0.00    -0.009 A 
ATOM     16  C   UNL     1       1.258   7.775  -2.012  1.00  0.00     0.009 A 
ATOM     17  C   UNL     1       3.685   5.525   0.621  1.00  0.00     0.010 A 
ATOM     18  C   UNL     1       3.439   7.248  -1.065  1.00  0.00    -0.002 A 
ATOM     19  C   UNL     1       2.635   8.007  -1.948  1.00  0.00    -0.017 A 
ATOM     20  C   UNL     1       5.057   5.765   0.681  1.00  0.00     0.009 A 
ATOM     21  C   UNL     1       4.841   7.497  -1.011  1.00  0.00    -0.002 A 
ATOM     22  C   UNL     1       3.223   8.984  -2.752  1.00  0.00     0.009 A 
ATOM     23  C   UNL     1       5.645   6.741  -0.126  1.00  0.00    -0.017 A 
ATOM     24  C   UNL     1       5.439   8.490  -1.834  1.00  0.00    -0.009 A 
ATOM     25  C   UNL     1       4.597   9.220  -2.696  1.00  0.00     0.010 A 
ATOM     26  C   UNL     1       7.023   6.973  -0.062  1.00  0.00     0.009 A 
ATOM     27  C   UNL     1       6.843   8.709  -1.759  1.00  0.00    -0.010 A 
ATOM     28  C   UNL     1       7.612   7.943  -0.869  1.00  0.00     0.010 A 
BRANCH  27  29
ATOM     29  C   UNL     1       7.537   9.710  -2.584  1.00  0.00    -0.018 A 
ATOM     30  C   UNL     1       8.443  10.610  -2.006  1.00  0.00     0.012 A 
ATOM     31  C   UNL     1       7.298   9.794  -3.964  1.00  0.00     0.012 A 
ATOM     32  C   UNL     1       9.094  11.564  -2.794  1.00  0.00     0.047 A 
ATOM     33  C   UNL     1       7.951  10.751  -4.750  1.00  0.00     0.047 A 
ATOM     34  C   UNL     1       8.853  11.640  -4.167  1.00  0.00     0.118 A 
BRANCH  34  35
ATOM     35  O   UNL     1       9.553  12.619  -4.816  1.00  0.00    -0.497 OA
ATOM     36  C   UNL     1       8.809  13.730  -5.302  1.00  0.00     0.278 C 
ENDBRANCH  34  35
ENDBRANCH  27  29
ENDBRANCH   4  13
TORSDOF 6
ENDMDL
MODEL 18
REMARK VINA RESULT:    -5.827      5.536      7.954
REMARK INTER + INTRA:          -8.446
REMARK INTER:                  -7.617
REMARK INTRA:                  -0.828
REMARK CONF_INDEPENDENT:        1.790
REMARK UNBOUND:                -0.828
REMARK SMILES CC[NH2+]Cc1ccc(-c2ccc3ccc4c(-c5ccc(OC)cc5)ccc5ccc2c3c54)cc1
REMARK SMILES IDX 5 1 6 2 7 3 8 4 33 5 34 6 4 7 3 8 2 11 1 12 9 13 10 14 30 15
REMARK SMILES IDX 11 16 29 17 31 18 12 19 28 20 32 21 13 22 27 23 15 24 14 25
REMARK SMILES IDX 26 26 16 27 25 28 17 29 18 30 24 31 19 32 23 33 20 34 21 35
REMARK SMILES IDX 22 36
REMARK H PARENT 3 9 3 10
REMARK Flexibility Score: inf
ROOT
ATOM      1  C   UNL     1       0.098  11.056   0.990  1.00  0.00     0.006 A 
ATOM      2  C   UNL     1      -0.009  10.675  -0.356  1.00  0.00     0.010 A 
ATOM      3  C   UNL     1       0.623   9.516  -0.815  1.00  0.00     0.009 A 
ATOM      4  C   UNL     1       1.373   8.714   0.056  1.00  0.00    -0.018 A 
ATOM      5  C   UNL     1       1.476   9.098   1.400  1.00  0.00     0.009 A 
ATOM      6  C   UNL     1       0.847  10.256   1.865  1.00  0.00     0.010 A 
ENDROOT
BRANCH   1   7
ATOM      7  C   UNL     1      -0.605  12.285   1.493  1.00  0.00     0.297 C 
BRANCH   7   8
ATOM      8  N   UNL     1      -0.210  13.525   0.755  1.00  0.00    -0.343 N 
ATOM      9  H   UNL     1       0.181  14.190   1.433  1.00  0.00     0.346 HD
ATOM     10  H   UNL     1       0.554  13.288   0.110  1.00  0.00     0.346 HD
BRANCH   8  11
ATOM     11  C   UNL     1      -1.309  14.190  -0.009  1.00  0.00     0.257 C 
ATOM     12  C   UNL     1      -1.025  14.058  -1.492  1.00  0.00     0.071 C 
ENDBRANCH   8  11
ENDBRANCH   7   8
ENDBRANCH   1   7
BRANCH   4  13
ATOM     13  C   UNL     1       2.039   7.495  -0.430  1.00  0.00    -0.010 A 
ATOM     14  C   UNL     1       1.241   6.482  -0.986  1.00  0.00     0.010 A 
ATOM     15  C   UNL     1       3.449   7.307  -0.347  1.00  0.00    -0.009 A 
ATOM     16  C   UNL     1       1.806   5.299  -1.452  1.00  0.00     0.009 A 
ATOM     17  C   UNL     1       4.321   8.276   0.189  1.00  0.00     0.010 A 
ATOM     18  C   UNL     1       4.019   6.094  -0.822  1.00  0.00    -0.002 A 
ATOM     19  C   UNL     1       3.186   5.094  -1.374  1.00  0.00    -0.017 A 
ATOM     20  C   UNL     1       5.698   8.064   0.261  1.00  0.00     0.009 A 
ATOM     21  C   UNL     1       5.425   5.871  -0.749  1.00  0.00    -0.002 A 
ATOM     22  C   UNL     1       3.749   3.904  -1.838  1.00  0.00     0.009 A 
ATOM     23  C   UNL     1       6.260   6.872  -0.201  1.00  0.00    -0.017 A 
ATOM     24  C   UNL     1       5.996   4.656  -1.219  1.00  0.00    -0.009 A 
ATOM     25  C   UNL     1       5.125   3.690  -1.761  1.00  0.00     0.010 A 
ATOM     26  C   UNL     1       7.640   6.666  -0.123  1.00  0.00     0.009 A 
ATOM     27  C   UNL     1       7.402   4.462  -1.126  1.00  0.00    -0.010 A 
ATOM     28  C   UNL     1       8.202   5.477  -0.578  1.00  0.00     0.010 A 
BRANCH  27  29
ATOM     29  C   UNL     1       8.067   3.230  -1.581  1.00  0.00    -0.018 A 
ATOM     30  C   UNL     1       7.606   2.543  -2.711  1.00  0.00     0.012 A 
ATOM     31  C   UNL     1       9.169   2.710  -0.885  1.00  0.00     0.012 A 
ATOM     32  C   UNL     1       8.237   1.369  -3.135  1.00  0.00     0.047 A 
ATOM     33  C   UNL     1       9.799   1.534  -1.309  1.00  0.00     0.047 A 
ATOM     34  C   UNL     1       9.334   0.859  -2.438  1.00  0.00     0.118 A 
BRANCH  34  35
ATOM     35  O   UNL     1       9.854  -0.295  -2.957  1.00  0.00    -0.497 OA
ATOM     36  C   UNL     1      11.221  -0.570  -2.675  1.00  0.00     0.278 C 
ENDBRANCH  34  35
ENDBRANCH  27  29
ENDBRANCH   4  13
TORSDOF 6
ENDMDL
MODEL 19
REMARK VINA RESULT:    -5.706      4.430     10.830
REMARK INTER + INTRA:          -8.556
REMARK INTER:                  -7.496
REMARK INTRA:                  -1.060
REMARK CONF_INDEPENDENT:        1.790
REMARK UNBOUND:                -1.060
REMARK SMILES CC[NH2+]Cc1ccc(-c2ccc3ccc4c(-c5ccc(OC)cc5)ccc5ccc2c3c54)cc1
REMARK SMILES IDX 5 1 6 2 7 3 8 4 33 5 34 6 4 7 3 8 2 11 1 12 9 13 10 14 30 15
REMARK SMILES IDX 11 16 29 17 31 18 12 19 28 20 32 21 13 22 27 23 15 24 14 25
REMARK SMILES IDX 26 26 16 27 25 28 17 29 18 30 24 31 19 32 23 33 20 34 21 35
REMARK SMILES IDX 22 36
REMARK H PARENT 3 9 3 10
REMARK Flexibility Score: inf
ROOT
ATOM      1  C   UNL     1      -0.605   2.718   2.235  1.00  0.00     0.006 A 
ATOM      2  C   UNL     1      -1.160   3.141   1.018  1.00  0.00     0.010 A 
ATOM      3  C   UNL     1      -0.562   4.172   0.288  1.00  0.00     0.009 A 
ATOM      4  C   UNL     1       0.599   4.803   0.756  1.00  0.00    -0.018 A 
ATOM      5  C   UNL     1       1.151   4.376   1.972  1.00  0.00     0.009 A 
ATOM      6  C   UNL     1       0.557   3.346   2.706  1.00  0.00     0.010 A 
ENDROOT
BRANCH   1   7
ATOM      7  C   UNL     1      -1.228   1.589   3.006  1.00  0.00     0.297 C 
BRANCH   7   8
ATOM      8  N   UNL     1      -0.747   0.244   2.563  1.00  0.00    -0.343 N 
ATOM      9  H   UNL     1      -1.563  -0.306   2.269  1.00  0.00     0.346 HD
ATOM     10  H   UNL     1      -0.166   0.370   1.724  1.00  0.00     0.346 HD
BRANCH   8  11
ATOM     11  C   UNL     1       0.027  -0.525   3.584  1.00  0.00     0.257 C 
ATOM     12  C   UNL     1       1.507  -0.347   3.315  1.00  0.00     0.071 C 
ENDBRANCH   8  11
ENDBRANCH   7   8
ENDBRANCH   1   7
BRANCH   4  13
ATOM     13  C   UNL     1       1.226   5.890  -0.012  1.00  0.00    -0.010 A 
ATOM     14  C   UNL     1       0.842   7.209   0.275  1.00  0.00     0.010 A 
ATOM     15  C   UNL     1       2.193   5.650  -1.031  1.00  0.00    -0.009 A 
ATOM     16  C   UNL     1       1.388   8.283  -0.424  1.00  0.00     0.009 A 
ATOM     17  C   UNL     1       2.639   4.357  -1.375  1.00  0.00     0.010 A 
ATOM     18  C   UNL     1       2.744   6.750  -1.742  1.00  0.00    -0.002 A 
ATOM     19  C   UNL     1       2.333   8.067  -1.430  1.00  0.00    -0.017 A 
ATOM     20  C   UNL     1       3.585   4.151  -2.379  1.00  0.00     0.009 A 
ATOM     21  C   UNL     1       3.709   6.546  -2.772  1.00  0.00    -0.002 A 
ATOM     22  C   UNL     1       2.874   9.145  -2.132  1.00  0.00     0.009 A 
ATOM     23  C   UNL     1       4.123   5.229  -3.082  1.00  0.00    -0.017 A 
ATOM     24  C   UNL     1       4.256   7.645  -3.488  1.00  0.00    -0.009 A 
ATOM     25  C   UNL     1       3.816   8.938  -3.140  1.00  0.00     0.010 A 
ATOM     26  C   UNL     1       5.069   5.014  -4.089  1.00  0.00     0.009 A 
ATOM     27  C   UNL     1       5.213   7.406  -4.513  1.00  0.00    -0.010 A 
ATOM     28  C   UNL     1       5.604   6.087  -4.795  1.00  0.00     0.010 A 
BRANCH  27  29
ATOM     29  C   UNL     1       5.818   8.489  -5.305  1.00  0.00    -0.018 A 
ATOM     30  C   UNL     1       6.414   9.590  -4.676  1.00  0.00     0.012 A 
ATOM     31  C   UNL     1       5.800   8.449  -6.707  1.00  0.00     0.012 A 
ATOM     32  C   UNL     1       6.981  10.619  -5.433  1.00  0.00     0.047 A 
ATOM     33  C   UNL     1       6.366   9.481  -7.464  1.00  0.00     0.047 A 
ATOM     34  C   UNL     1       6.960  10.571  -6.829  1.00  0.00     0.118 A 
BRANCH  34  35
ATOM     35  O   UNL     1       7.546  11.642  -7.445  1.00  0.00    -0.497 OA
ATOM     36  C   UNL     1       6.787  12.300  -8.453  1.00  0.00     0.278 C 
ENDBRANCH  34  35
ENDBRANCH  27  29
ENDBRANCH   4  13
TORSDOF 6
ENDMDL
MODEL 20
REMARK VINA RESULT:    -5.318      4.798      8.132
REMARK INTER + INTRA:          -8.176
REMARK INTER:                  -7.108
REMARK INTRA:                  -1.068
REMARK CONF_INDEPENDENT:        1.790
REMARK UNBOUND:                -1.068
REMARK SMILES CC[NH2+]Cc1ccc(-c2ccc3ccc4c(-c5ccc(OC)cc5)ccc5ccc2c3c54)cc1
REMARK SMILES IDX 5 1 6 2 7 3 8 4 33 5 34 6 4 7 3 8 2 11 1 12 9 13 10 14 30 15
REMARK SMILES IDX 11 16 29 17 31 18 12 19 28 20 32 21 13 22 27 23 15 24 14 25
REMARK SMILES IDX 26 26 16 27 25 28 17 29 18 30 24 31 19 32 23 33 20 34 21 35
REMARK SMILES IDX 22 36
REMARK H PARENT 3 9 3 10
REMARK Flexibility Score: inf
ROOT
ATOM      1  C   UNL     1      -1.673  10.769  -1.237  1.00  0.00     0.006 A 
ATOM      2  C   UNL     1      -1.979   9.470  -1.668  1.00  0.00     0.010 A 
ATOM      3  C   UNL     1      -1.065   8.428  -1.482  1.00  0.00     0.009 A 
ATOM      4  C   UNL     1       0.171   8.660  -0.863  1.00  0.00    -0.018 A 
ATOM      5  C   UNL     1       0.472   9.959  -0.432  1.00  0.00     0.009 A 
ATOM      6  C   UNL     1      -0.437  11.005  -0.617  1.00  0.00     0.010 A 
ENDROOT
BRANCH   1   7
ATOM      7  C   UNL     1      -2.665  11.884  -1.408  1.00  0.00     0.297 C 
BRANCH   7   8
ATOM      8  N   UNL     1      -2.582  12.910  -0.323  1.00  0.00    -0.343 N 
ATOM      9  H   UNL     1      -1.591  13.140  -0.177  1.00  0.00     0.346 HD
ATOM     10  H   UNL     1      -3.031  13.772  -0.659  1.00  0.00     0.346 HD
BRANCH   8  11
ATOM     11  C   UNL     1      -3.194  12.512   0.980  1.00  0.00     0.257 C 
ATOM     12  C   UNL     1      -2.099  12.392   2.020  1.00  0.00     0.071 C 
ENDBRANCH   8  11
ENDBRANCH   7   8
ENDBRANCH   1   7
BRANCH   4  13
ATOM     13  C   UNL     1       1.132   7.563  -0.669  1.00  0.00    -0.010 A 
ATOM     14  C   UNL     1       1.144   6.906   0.572  1.00  0.00     0.010 A 
ATOM     15  C   UNL     1       2.046   7.156  -1.684  1.00  0.00    -0.009 A 
ATOM     16  C   UNL     1       2.037   5.869   0.825  1.00  0.00     0.009 A 
ATOM     17  C   UNL     1       2.093   7.756  -2.959  1.00  0.00     0.010 A 
ATOM     18  C   UNL     1       2.957   6.098  -1.418  1.00  0.00    -0.002 A 
ATOM     19  C   UNL     1       2.945   5.459  -0.156  1.00  0.00    -0.017 A 
ATOM     20  C   UNL     1       3.000   7.340  -3.932  1.00  0.00     0.009 A 
ATOM     21  C   UNL     1       3.888   5.669  -2.408  1.00  0.00    -0.002 A 
ATOM     22  C   UNL     1       3.842   4.422   0.103  1.00  0.00     0.009 A 
ATOM     23  C   UNL     1       3.899   6.305  -3.671  1.00  0.00    -0.017 A 
ATOM     24  C   UNL     1       4.805   4.615  -2.140  1.00  0.00    -0.009 A 
ATOM     25  C   UNL     1       4.753   4.010  -0.869  1.00  0.00     0.010 A 
ATOM     26  C   UNL     1       4.807   5.895  -4.652  1.00  0.00     0.009 A 
ATOM     27  C   UNL     1       5.725   4.215  -3.149  1.00  0.00    -0.010 A 
ATOM     28  C   UNL     1       5.708   4.866  -4.393  1.00  0.00     0.010 A 
BRANCH  27  29
ATOM     29  C   UNL     1       6.710   3.141  -2.946  1.00  0.00    -0.018 A 
ATOM     30  C   UNL     1       6.863   2.121  -3.895  1.00  0.00     0.012 A 
ATOM     31  C   UNL     1       7.509   3.107  -1.793  1.00  0.00     0.012 A 
ATOM     32  C   UNL     1       7.795   1.099  -3.694  1.00  0.00     0.047 A 
ATOM     33  C   UNL     1       8.441   2.082  -1.593  1.00  0.00     0.047 A 
ATOM     34  C   UNL     1       8.588   1.073  -2.545  1.00  0.00     0.118 A 
BRANCH  34  35
ATOM     35  O   UNL     1       9.455   0.018  -2.473  1.00  0.00    -0.497 OA
ATOM     36  C   UNL     1       9.825  -0.425  -1.173  1.00  0.00     0.278 C 
ENDBRANCH  34  35
ENDBRANCH  27  29
ENDBRANCH   4  13
TORSDOF 6
ENDMDL
