MODEL 1
REMARK VINA RESULT:   -16.455      0.000      0.000
REMARK INTER + INTRA:         -21.555
REMARK INTER:                 -20.035
REMARK INTRA:                  -1.520
REMARK CONF_INDEPENDENT:        3.580
REMARK UNBOUND:                -1.520
REMARK SMILES CC[N+](C)(C)Cc1ccc(-c2ccc3ccc4c(-c5ccc(OC)cc5)ccc5ccc2c3c54)cc1
REMARK SMILES IDX 7 1 8 2 9 3 10 4 35 5 36 6 6 7 3 8 4 9 5 10 2 11 1 12 11 13
REMARK SMILES IDX 12 14 32 15 13 16 31 17 33 18 14 19 30 20 34 21 15 22 29 23
REMARK SMILES IDX 17 24 16 25 28 26 18 27 27 28 19 29 20 30 26 31 21 32 25 33
REMARK SMILES IDX 22 34 23 35 24 36
REMARK H PARENT
REMARK Flexibility Score: inf
ROOT
ATOM      1  C   UNL     1       0.029  11.303   1.996  1.00  0.00     0.006 A 
ATOM      2  C   UNL     1      -0.648  11.105   0.783  1.00  0.00     0.010 A 
ATOM      3  C   UNL     1      -0.089  10.311  -0.223  1.00  0.00     0.009 A 
ATOM      4  C   UNL     1       1.154   9.692  -0.040  1.00  0.00    -0.018 A 
ATOM      5  C   UNL     1       1.821   9.876   1.177  1.00  0.00     0.009 A 
ATOM      6  C   UNL     1       1.265  10.668   2.186  1.00  0.00     0.010 A 
ENDROOT
BRANCH   1   7
ATOM      7  C   UNL     1      -0.574  12.160   3.082  1.00  0.00     0.300 C 
BRANCH   7   8
ATOM      8  N   UNL     1       0.397  13.045   3.918  1.00  0.00    -0.325 N 
ATOM      9  C   UNL     1      -0.397  14.050   4.743  1.00  0.00     0.334 C 
ATOM     10  C   UNL     1       1.224  12.171   4.852  1.00  0.00     0.334 C 
BRANCH   8  11
ATOM     11  C   UNL     1       1.303  13.767   2.896  1.00  0.00     0.260 C 
ATOM     12  C   UNL     1       2.781  13.771   3.254  1.00  0.00     0.071 C 
ENDBRANCH   8  11
ENDBRANCH   7   8
ENDBRANCH   1   7
BRANCH   4  13
ATOM     13  C   UNL     1       1.737   8.848  -1.096  1.00  0.00    -0.010 A 
ATOM     14  C   UNL     1       0.865   8.064  -1.868  1.00  0.00     0.010 A 
ATOM     15  C   UNL     1       3.135   8.802  -1.360  1.00  0.00    -0.009 A 
ATOM     16  C   UNL     1       1.347   7.247  -2.887  1.00  0.00     0.009 A 
ATOM     17  C   UNL     1       4.079   9.553  -0.629  1.00  0.00     0.010 A 
ATOM     18  C   UNL     1       3.622   7.966  -2.401  1.00  0.00    -0.002 A 
ATOM     19  C   UNL     1       2.715   7.190  -3.161  1.00  0.00    -0.017 A 
ATOM     20  C   UNL     1       5.444   9.490  -0.910  1.00  0.00     0.009 A 
ATOM     21  C   UNL     1       5.016   7.896  -2.693  1.00  0.00    -0.002 A 
ATOM     22  C   UNL     1       3.195   6.369  -4.183  1.00  0.00     0.009 A 
ATOM     23  C   UNL     1       5.923   8.671  -1.934  1.00  0.00    -0.017 A 
ATOM     24  C   UNL     1       5.501   7.059  -3.734  1.00  0.00    -0.009 A 
ATOM     25  C   UNL     1       4.560   6.306  -4.463  1.00  0.00     0.010 A 
ATOM     26  C   UNL     1       7.293   8.613  -2.210  1.00  0.00     0.009 A 
ATOM     27  C   UNL     1       6.899   7.013  -4.000  1.00  0.00    -0.010 A 
ATOM     28  C   UNL     1       7.772   7.795  -3.228  1.00  0.00     0.010 A 
BRANCH  27  29
ATOM     29  C   UNL     1       7.478   6.170  -5.059  1.00  0.00    -0.018 A 
ATOM     30  C   UNL     1       6.779   5.937  -6.250  1.00  0.00     0.012 A 
ATOM     31  C   UNL     1       8.738   5.577  -4.895  1.00  0.00     0.012 A 
ATOM     32  C   UNL     1       7.332   5.136  -7.251  1.00  0.00     0.047 A 
ATOM     33  C   UNL     1       9.290   4.773  -5.900  1.00  0.00     0.047 A 
ATOM     34  C   UNL     1       8.588   4.549  -7.084  1.00  0.00     0.118 A 
BRANCH  34  35
ATOM     35  O   UNL     1       9.010   3.791  -8.139  1.00  0.00    -0.497 OA
ATOM     36  C   UNL     1      10.409   3.560  -8.248  1.00  0.00     0.278 C 
ENDBRANCH  34  35
ENDBRANCH  27  29
ENDBRANCH   4  13
TORSDOF 6
REMARK SMILES CC[N+](C)(C)Cc1ccc(-c2ccc3ccc4c(-c5ccc(OC)cc5)ccc5ccc2c3c54)cc1
REMARK SMILES IDX 7 1 8 2 9 3 10 4 35 5 36 6 6 7 3 8 4 9 5 10 2 11 1 12 11 13
REMARK SMILES IDX 12 14 32 15 13 16 31 17 33 18 14 19 30 20 34 21 15 22 29 23
REMARK SMILES IDX 17 24 16 25 28 26 18 27 27 28 19 29 20 30 26 31 21 32 25 33
REMARK SMILES IDX 22 34 23 35 24 36
REMARK H PARENT
REMARK Flexibility Score: inf
ROOT
ATOM      1  C   UNL     1       7.830   2.357  -4.308  1.00  0.00     0.006 A 
ATOM      2  C   UNL     1       6.522   2.832  -4.482  1.00  0.00     0.010 A 
ATOM      3  C   UNL     1       5.908   3.607  -3.493  1.00  0.00     0.009 A 
ATOM      4  C   UNL     1       6.587   3.931  -2.311  1.00  0.00    -0.018 A 
ATOM      5  C   UNL     1       7.899   3.470  -2.146  1.00  0.00     0.009 A 
ATOM      6  C   UNL     1       8.516   2.696  -3.132  1.00  0.00     0.010 A 
ENDROOT
BRANCH   1   7
ATOM      7  C   UNL     1       8.493   1.520  -5.374  1.00  0.00     0.300 C 
BRANCH   7   8
ATOM      8  N   UNL     1       8.407  -0.029  -5.227  1.00  0.00    -0.325 N 
ATOM      9  C   UNL     1       7.621  -0.617  -6.392  1.00  0.00     0.334 C 
ATOM     10  C   UNL     1       9.807  -0.629  -5.213  1.00  0.00     0.334 C 
BRANCH   8  11
ATOM     11  C   UNL     1       7.684  -0.290  -3.887  1.00  0.00     0.260 C 
ATOM     12  C   UNL     1       8.584  -0.794  -2.771  1.00  0.00     0.071 C 
ENDBRANCH   8  11
ENDBRANCH   7   8
ENDBRANCH   1   7
BRANCH   4  13
ATOM     13  C   UNL     1       5.944   4.755  -1.276  1.00  0.00    -0.010 A 
ATOM     14  C   UNL     1       6.767   5.547  -0.460  1.00  0.00     0.010 A 
ATOM     15  C   UNL     1       4.534   4.778  -1.077  1.00  0.00    -0.009 A 
ATOM     16  C   UNL     1       6.225   6.355   0.536  1.00  0.00     0.009 A 
ATOM     17  C   UNL     1       3.638   4.010  -1.848  1.00  0.00     0.010 A 
ATOM     18  C   UNL     1       3.986   5.605  -0.058  1.00  0.00    -0.002 A 
ATOM     19  C   UNL     1       4.844   6.392   0.745  1.00  0.00    -0.017 A 
ATOM     20  C   UNL     1       2.259   4.053  -1.633  1.00  0.00     0.009 A 
ATOM     21  C   UNL     1       2.579   5.653   0.167  1.00  0.00    -0.002 A 
ATOM     22  C   UNL     1       4.305   7.203   1.745  1.00  0.00     0.009 A 
ATOM     23  C   UNL     1       1.720   4.866  -0.634  1.00  0.00    -0.017 A 
ATOM     24  C   UNL     1       2.032   6.480   1.187  1.00  0.00    -0.009 A 
ATOM     25  C   UNL     1       2.927   7.245   1.961  1.00  0.00     0.010 A 
ATOM     26  C   UNL     1       0.338   4.904  -0.424  1.00  0.00     0.009 A 
ATOM     27  C   UNL     1       0.623   6.505   1.386  1.00  0.00    -0.010 A 
ATOM     28  C   UNL     1      -0.201   5.712   0.572  1.00  0.00     0.010 A 
BRANCH  27  29
ATOM     29  C   UNL     1      -0.017   7.333   2.421  1.00  0.00    -0.018 A 
ATOM     30  C   UNL     1      -1.216   8.007   2.158  1.00  0.00     0.012 A 
ATOM     31  C   UNL     1       0.564   7.471   3.690  1.00  0.00     0.012 A 
ATOM     32  C   UNL     1      -1.818   8.793   3.143  1.00  0.00     0.047 A 
ATOM     33  C   UNL     1      -0.042   8.259   4.676  1.00  0.00     0.047 A 
ATOM     34  C   UNL     1      -1.237   8.924   4.405  1.00  0.00     0.118 A 
BRANCH  34  35
ATOM     35  O   UNL     1      -1.930   9.720   5.274  1.00  0.00    -0.497 OA
ATOM     36  C   UNL     1      -3.034  10.444   4.744  1.00  0.00     0.278 C 
ENDBRANCH  34  35
ENDBRANCH  27  29
ENDBRANCH   4  13
TORSDOF 6
ENDMDL
MODEL 2
REMARK VINA RESULT:   -16.076      1.404      2.240
REMARK INTER + INTRA:         -22.032
REMARK INTER:                 -19.655
REMARK INTRA:                  -2.377
REMARK CONF_INDEPENDENT:        3.580
REMARK UNBOUND:                -2.377
REMARK SMILES CC[N+](C)(C)Cc1ccc(-c2ccc3ccc4c(-c5ccc(OC)cc5)ccc5ccc2c3c54)cc1
REMARK SMILES IDX 7 1 8 2 9 3 10 4 35 5 36 6 6 7 3 8 4 9 5 10 2 11 1 12 11 13
REMARK SMILES IDX 12 14 32 15 13 16 31 17 33 18 14 19 30 20 34 21 15 22 29 23
REMARK SMILES IDX 17 24 16 25 28 26 18 27 27 28 19 29 20 30 26 31 21 32 25 33
REMARK SMILES IDX 22 34 23 35 24 36
REMARK H PARENT
REMARK Flexibility Score: inf
ROOT
ATOM      1  C   UNL     1       0.071  11.768   1.543  1.00  0.00     0.006 A 
ATOM      2  C   UNL     1       1.146  10.945   1.912  1.00  0.00     0.010 A 
ATOM      3  C   UNL     1       1.543   9.884   1.092  1.00  0.00     0.009 A 
ATOM      4  C   UNL     1       0.882   9.623  -0.115  1.00  0.00    -0.018 A 
ATOM      5  C   UNL     1      -0.180  10.455  -0.489  1.00  0.00     0.009 A 
ATOM      6  C   UNL     1      -0.579  11.518   0.326  1.00  0.00     0.010 A 
ENDROOT
BRANCH   1   7
ATOM      7  C   UNL     1      -0.358  12.914   2.427  1.00  0.00     0.300 C 
BRANCH   7   8
ATOM      8  N   UNL     1      -1.618  12.698   3.318  1.00  0.00    -0.325 N 
ATOM      9  C   UNL     1      -2.600  13.844   3.111  1.00  0.00     0.334 C 
ATOM     10  C   UNL     1      -2.295  11.384   2.951  1.00  0.00     0.334 C 
BRANCH   8  11
ATOM     11  C   UNL     1      -1.110  12.666   4.776  1.00  0.00     0.260 C 
ATOM     12  C   UNL     1       0.385  12.423   4.919  1.00  0.00     0.071 C 
ENDBRANCH   8  11
ENDBRANCH   7   8
ENDBRANCH   1   7
BRANCH   4  13
ATOM     13  C   UNL     1       1.307   8.512  -0.981  1.00  0.00    -0.010 A 
ATOM     14  C   UNL     1       0.416   7.443  -1.165  1.00  0.00     0.010 A 
ATOM     15  C   UNL     1       2.574   8.484  -1.631  1.00  0.00    -0.009 A 
ATOM     16  C   UNL     1       0.751   6.361  -1.975  1.00  0.00     0.009 A 
ATOM     17  C   UNL     1       3.528   9.513  -1.495  1.00  0.00     0.010 A 
ATOM     18  C   UNL     1       2.911   7.377  -2.457  1.00  0.00    -0.002 A 
ATOM     19  C   UNL     1       1.988   6.318  -2.622  1.00  0.00    -0.017 A 
ATOM     20  C   UNL     1       4.762   9.462  -2.145  1.00  0.00     0.009 A 
ATOM     21  C   UNL     1       4.169   7.318  -3.123  1.00  0.00    -0.002 A 
ATOM     22  C   UNL     1       2.320   5.232  -3.433  1.00  0.00     0.009 A 
ATOM     23  C   UNL     1       5.093   8.376  -2.959  1.00  0.00    -0.017 A 
ATOM     24  C   UNL     1       4.505   6.210  -3.949  1.00  0.00    -0.009 A 
ATOM     25  C   UNL     1       3.554   5.180  -4.083  1.00  0.00     0.010 A 
ATOM     26  C   UNL     1       6.331   8.331  -3.607  1.00  0.00     0.009 A 
ATOM     27  C   UNL     1       5.770   6.182  -4.601  1.00  0.00    -0.010 A 
ATOM     28  C   UNL     1       6.663   7.249  -4.416  1.00  0.00     0.010 A 
BRANCH  27  29
ATOM     29  C   UNL     1       6.191   5.070  -5.468  1.00  0.00    -0.018 A 
ATOM     30  C   UNL     1       6.227   3.757  -4.982  1.00  0.00     0.012 A 
ATOM     31  C   UNL     1       6.572   5.302  -6.798  1.00  0.00     0.012 A 
ATOM     32  C   UNL     1       6.628   2.706  -5.810  1.00  0.00     0.047 A 
ATOM     33  C   UNL     1       6.974   4.247  -7.626  1.00  0.00     0.047 A 
ATOM     34  C   UNL     1       7.004   2.942  -7.133  1.00  0.00     0.118 A 
BRANCH  34  35
ATOM     35  O   UNL     1       7.374   1.827  -7.831  1.00  0.00    -0.497 OA
ATOM     36  C   UNL     1       6.554   0.674  -7.685  1.00  0.00     0.278 C 
ENDBRANCH  34  35
ENDBRANCH  27  29
ENDBRANCH   4  13
TORSDOF 6
REMARK SMILES CC[N+](C)(C)Cc1ccc(-c2ccc3ccc4c(-c5ccc(OC)cc5)ccc5ccc2c3c54)cc1
REMARK SMILES IDX 7 1 8 2 9 3 10 4 35 5 36 6 6 7 3 8 4 9 5 10 2 11 1 12 11 13
REMARK SMILES IDX 12 14 32 15 13 16 31 17 33 18 14 19 30 20 34 21 15 22 29 23
REMARK SMILES IDX 17 24 16 25 28 26 18 27 27 28 19 29 20 30 26 31 21 32 25 33
REMARK SMILES IDX 22 34 23 35 24 36
REMARK H PARENT
REMARK Flexibility Score: inf
ROOT
ATOM      1  C   UNL     1      10.408   3.490  -4.077  1.00  0.00     0.006 A 
ATOM      2  C   UNL     1       9.933   4.747  -4.480  1.00  0.00     0.010 A 
ATOM      3  C   UNL     1       9.085   5.487  -3.651  1.00  0.00     0.009 A 
ATOM      4  C   UNL     1       8.694   4.992  -2.400  1.00  0.00    -0.018 A 
ATOM      5  C   UNL     1       9.181   3.745  -1.991  1.00  0.00     0.009 A 
ATOM      6  C   UNL     1      10.031   3.003  -2.816  1.00  0.00     0.010 A 
ENDROOT
BRANCH   1   7
ATOM      7  C   UNL     1      11.324   2.690  -4.971  1.00  0.00     0.300 C 
BRANCH   7   8
ATOM      8  N   UNL     1      10.664   1.837  -6.094  1.00  0.00    -0.325 N 
ATOM      9  C   UNL     1      10.311   2.726  -7.280  1.00  0.00     0.334 C 
ATOM     10  C   UNL     1      11.625   0.748  -6.552  1.00  0.00     0.334 C 
BRANCH   8  11
ATOM     11  C   UNL     1       9.392   1.221  -5.471  1.00  0.00     0.260 C 
ATOM     12  C   UNL     1       9.642  -0.006  -4.608  1.00  0.00     0.071 C 
ENDBRANCH   8  11
ENDBRANCH   7   8
ENDBRANCH   1   7
BRANCH   4  13
ATOM     13  C   UNL     1       7.808   5.776  -1.525  1.00  0.00    -0.010 A 
ATOM     14  C   UNL     1       8.276   7.013  -1.052  1.00  0.00     0.010 A 
ATOM     15  C   UNL     1       6.509   5.331  -1.147  1.00  0.00    -0.009 A 
ATOM     16  C   UNL     1       7.489   7.809  -0.225  1.00  0.00     0.009 A 
ATOM     17  C   UNL     1       5.966   4.101  -1.572  1.00  0.00     0.010 A 
ATOM     18  C   UNL     1       5.709   6.148  -0.302  1.00  0.00    -0.002 A 
ATOM     19  C   UNL     1       6.211   7.389   0.155  1.00  0.00    -0.017 A 
ATOM     20  C   UNL     1       4.689   3.690  -1.188  1.00  0.00     0.009 A 
ATOM     21  C   UNL     1       4.405   5.733   0.095  1.00  0.00    -0.002 A 
ATOM     22  C   UNL     1       5.425   8.190   0.985  1.00  0.00     0.009 A 
ATOM     23  C   UNL     1       3.902   4.493  -0.360  1.00  0.00    -0.017 A 
ATOM     24  C   UNL     1       3.606   6.551   0.941  1.00  0.00    -0.009 A 
ATOM     25  C   UNL     1       4.149   7.778   1.370  1.00  0.00     0.010 A 
ATOM     26  C   UNL     1       2.623   4.074   0.021  1.00  0.00     0.009 A 
ATOM     27  C   UNL     1       2.307   6.108   1.319  1.00  0.00    -0.010 A 
ATOM     28  C   UNL     1       1.838   4.871   0.849  1.00  0.00     0.010 A 
BRANCH  27  29
ATOM     29  C   UNL     1       1.423   6.896   2.192  1.00  0.00    -0.018 A 
ATOM     30  C   UNL     1       0.058   7.019   1.904  1.00  0.00     0.012 A 
ATOM     31  C   UNL     1       1.929   7.547   3.326  1.00  0.00     0.012 A 
ATOM     32  C   UNL     1      -0.777   7.770   2.736  1.00  0.00     0.047 A 
ATOM     33  C   UNL     1       1.091   8.300   4.158  1.00  0.00     0.047 A 
ATOM     34  C   UNL     1      -0.268   8.414   3.865  1.00  0.00     0.118 A 
BRANCH  34  35
ATOM     35  O   UNL     1      -1.192   9.113   4.590  1.00  0.00    -0.497 OA
ATOM     36  C   UNL     1      -2.472   8.515   4.750  1.00  0.00     0.278 C 
ENDBRANCH  34  35
ENDBRANCH  27  29
ENDBRANCH   4  13
TORSDOF 6
ENDMDL
MODEL 3
REMARK VINA RESULT:   -15.989      3.303     10.237
REMARK INTER + INTRA:         -21.317
REMARK INTER:                 -19.568
REMARK INTRA:                  -1.749
REMARK CONF_INDEPENDENT:        3.580
REMARK UNBOUND:                -1.749
REMARK SMILES CC[N+](C)(C)Cc1ccc(-c2ccc3ccc4c(-c5ccc(OC)cc5)ccc5ccc2c3c54)cc1
REMARK SMILES IDX 7 1 8 2 9 3 10 4 35 5 36 6 6 7 3 8 4 9 5 10 2 11 1 12 11 13
REMARK SMILES IDX 12 14 32 15 13 16 31 17 33 18 14 19 30 20 34 21 15 22 29 23
REMARK SMILES IDX 17 24 16 25 28 26 18 27 27 28 19 29 20 30 26 31 21 32 25 33
REMARK SMILES IDX 22 34 23 35 24 36
REMARK H PARENT
REMARK Flexibility Score: inf
ROOT
ATOM      1  C   UNL     1       8.605   9.980  -5.576  1.00  0.00     0.006 A 
ATOM      2  C   UNL     1       7.319   9.425  -5.677  1.00  0.00     0.010 A 
ATOM      3  C   UNL     1       6.679   8.904  -4.549  1.00  0.00     0.009 A 
ATOM      4  C   UNL     1       7.303   8.928  -3.294  1.00  0.00    -0.018 A 
ATOM      5  C   UNL     1       8.578   9.496  -3.192  1.00  0.00     0.009 A 
ATOM      6  C   UNL     1       9.221  10.021  -4.317  1.00  0.00     0.010 A 
ENDROOT
BRANCH   1   7
ATOM      7  C   UNL     1       9.296  10.543  -6.794  1.00  0.00     0.300 C 
BRANCH   7   8
ATOM      8  N   UNL     1       8.423  11.334  -7.812  1.00  0.00    -0.325 N 
ATOM      9  C   UNL     1       7.364  12.140  -7.071  1.00  0.00     0.334 C 
ATOM     10  C   UNL     1       9.298  12.282  -8.622  1.00  0.00     0.334 C 
BRANCH   8  11
ATOM     11  C   UNL     1       7.769  10.275  -8.726  1.00  0.00     0.260 C 
ATOM     12  C   UNL     1       6.253  10.205  -8.628  1.00  0.00     0.071 C 
ENDBRANCH   8  11
ENDBRANCH   7   8
ENDBRANCH   1   7
BRANCH   4  13
ATOM     13  C   UNL     1       6.624   8.387  -2.106  1.00  0.00    -0.010 A 
ATOM     14  C   UNL     1       7.378   7.605  -1.216  1.00  0.00     0.010 A 
ATOM     15  C   UNL     1       5.248   8.627  -1.830  1.00  0.00    -0.009 A 
ATOM     16  C   UNL     1       6.801   7.066  -0.070  1.00  0.00     0.009 A 
ATOM     17  C   UNL     1       4.420   9.396  -2.674  1.00  0.00     0.010 A 
ATOM     18  C   UNL     1       4.664   8.075  -0.658  1.00  0.00    -0.002 A 
ATOM     19  C   UNL     1       5.453   7.293   0.218  1.00  0.00    -0.017 A 
ATOM     20  C   UNL     1       3.074   9.618  -2.378  1.00  0.00     0.009 A 
ATOM     21  C   UNL     1       3.290   8.296  -0.351  1.00  0.00    -0.002 A 
ATOM     22  C   UNL     1       4.878   6.750   1.368  1.00  0.00     0.009 A 
ATOM     23  C   UNL     1       2.500   9.077  -1.225  1.00  0.00    -0.017 A 
ATOM     24  C   UNL     1       2.707   7.743   0.822  1.00  0.00    -0.009 A 
ATOM     25  C   UNL     1       3.532   6.971   1.664  1.00  0.00     0.010 A 
ATOM     26  C   UNL     1       1.151   9.303  -0.936  1.00  0.00     0.009 A 
ATOM     27  C   UNL     1       1.332   7.983   1.100  1.00  0.00    -0.010 A 
ATOM     28  C   UNL     1       0.576   8.763   0.211  1.00  0.00     0.010 A 
BRANCH  27  29
ATOM     29  C   UNL     1       0.657   7.443   2.291  1.00  0.00    -0.018 A 
ATOM     30  C   UNL     1      -0.669   6.998   2.222  1.00  0.00     0.012 A 
ATOM     31  C   UNL     1       1.324   7.369   3.522  1.00  0.00     0.012 A 
ATOM     32  C   UNL     1      -1.306   6.487   3.356  1.00  0.00     0.047 A 
ATOM     33  C   UNL     1       0.685   6.857   4.658  1.00  0.00     0.047 A 
ATOM     34  C   UNL     1      -0.635   6.414   4.578  1.00  0.00     0.118 A 
BRANCH  34  35
ATOM     35  O   UNL     1      -1.373   5.894   5.605  1.00  0.00    -0.497 OA
ATOM     36  C   UNL     1      -2.744   5.624   5.341  1.00  0.00     0.278 C 
ENDBRANCH  34  35
ENDBRANCH  27  29
ENDBRANCH   4  13
TORSDOF 6
REMARK SMILES CC[N+](C)(C)Cc1ccc(-c2ccc3ccc4c(-c5ccc(OC)cc5)ccc5ccc2c3c54)cc1
REMARK SMILES IDX 7 1 8 2 9 3 10 4 35 5 36 6 6 7 3 8 4 9 5 10 2 11 1 12 11 13
REMARK SMILES IDX 12 14 32 15 13 16 31 17 33 18 14 19 30 20 34 21 15 22 29 23
REMARK SMILES IDX 17 24 16 25 28 26 18 27 27 28 19 29 20 30 26 31 21 32 25 33
REMARK SMILES IDX 22 34 23 35 24 36
REMARK H PARENT
REMARK Flexibility Score: inf
ROOT
ATOM      1  C   UNL     1      -0.249   3.603   2.350  1.00  0.00     0.006 A 
ATOM      2  C   UNL     1      -0.918   3.711   1.121  1.00  0.00     0.010 A 
ATOM      3  C   UNL     1      -0.263   4.223  -0.003  1.00  0.00     0.009 A 
ATOM      4  C   UNL     1       1.074   4.634   0.070  1.00  0.00    -0.018 A 
ATOM      5  C   UNL     1       1.745   4.510   1.293  1.00  0.00     0.009 A 
ATOM      6  C   UNL     1       1.095   3.997   2.419  1.00  0.00     0.010 A 
ENDROOT
BRANCH   1   7
ATOM      7  C   UNL     1      -0.955   3.050   3.563  1.00  0.00     0.300 C 
BRANCH   7   8
ATOM      8  N   UNL     1      -0.952   1.504   3.752  1.00  0.00    -0.325 N 
ATOM      9  C   UNL     1      -1.929   1.115   4.854  1.00  0.00     0.334 C 
ATOM     10  C   UNL     1      -1.361   0.821   2.454  1.00  0.00     0.334 C 
BRANCH   8  11
ATOM     11  C   UNL     1       0.494   1.124   4.141  1.00  0.00     0.260 C 
ATOM     12  C   UNL     1       1.048  -0.087   3.407  1.00  0.00     0.071 C 
ENDBRANCH   8  11
ENDBRANCH   7   8
ENDBRANCH   1   7
BRANCH   4  13
ATOM     13  C   UNL     1       1.764   5.164  -1.116  1.00  0.00    -0.010 A 
ATOM     14  C   UNL     1       1.034   5.983  -1.992  1.00  0.00     0.010 A 
ATOM     15  C   UNL     1       3.131   4.881  -1.401  1.00  0.00    -0.009 A 
ATOM     16  C   UNL     1       1.625   6.522  -3.131  1.00  0.00     0.009 A 
ATOM     17  C   UNL     1       3.933   4.065  -0.578  1.00  0.00     0.010 A 
ATOM     18  C   UNL     1       3.730   5.435  -2.566  1.00  0.00    -0.002 A 
ATOM     19  C   UNL     1       2.965   6.257  -3.426  1.00  0.00    -0.017 A 
ATOM     20  C   UNL     1       5.271   3.806  -0.881  1.00  0.00     0.009 A 
ATOM     21  C   UNL     1       5.095   5.173  -2.881  1.00  0.00    -0.002 A 
ATOM     22  C   UNL     1       3.554   6.800  -4.569  1.00  0.00     0.009 A 
ATOM     23  C   UNL     1       5.861   4.351  -2.023  1.00  0.00    -0.017 A 
ATOM     24  C   UNL     1       5.693   5.727  -4.046  1.00  0.00    -0.009 A 
ATOM     25  C   UNL     1       4.891   6.539  -4.872  1.00  0.00     0.010 A 
ATOM     26  C   UNL     1       7.201   4.087  -2.320  1.00  0.00     0.009 A 
ATOM     27  C   UNL     1       7.058   5.446  -4.332  1.00  0.00    -0.010 A 
ATOM     28  C   UNL     1       7.790   4.627  -3.459  1.00  0.00     0.010 A 
BRANCH  27  29
ATOM     29  C   UNL     1       7.747   5.980  -5.518  1.00  0.00    -0.018 A 
ATOM     30  C   UNL     1       7.125   5.968  -6.773  1.00  0.00     0.012 A 
ATOM     31  C   UNL     1       9.043   6.507  -5.419  1.00  0.00     0.012 A 
ATOM     32  C   UNL     1       7.783   6.475  -7.896  1.00  0.00     0.047 A 
ATOM     33  C   UNL     1       9.701   7.015  -6.546  1.00  0.00     0.047 A 
ATOM     34  C   UNL     1       9.072   7.000  -7.791  1.00  0.00     0.118 A 
BRANCH  34  35
ATOM     35  O   UNL     1       9.598   7.463  -8.964  1.00  0.00    -0.497 OA
ATOM     36  C   UNL     1      10.921   7.983  -8.917  1.00  0.00     0.278 C 
ENDBRANCH  34  35
ENDBRANCH  27  29
ENDBRANCH   4  13
TORSDOF 6
ENDMDL
MODEL 4
REMARK VINA RESULT:   -15.878      1.633     11.835
REMARK INTER + INTRA:         -21.703
REMARK INTER:                 -19.458
REMARK INTRA:                  -2.246
REMARK CONF_INDEPENDENT:        3.580
REMARK UNBOUND:                -2.246
REMARK SMILES CC[N+](C)(C)Cc1ccc(-c2ccc3ccc4c(-c5ccc(OC)cc5)ccc5ccc2c3c54)cc1
REMARK SMILES IDX 7 1 8 2 9 3 10 4 35 5 36 6 6 7 3 8 4 9 5 10 2 11 1 12 11 13
REMARK SMILES IDX 12 14 32 15 13 16 31 17 33 18 14 19 30 20 34 21 15 22 29 23
REMARK SMILES IDX 17 24 16 25 28 26 18 27 27 28 19 29 20 30 26 31 21 32 25 33
REMARK SMILES IDX 22 34 23 35 24 36
REMARK H PARENT
REMARK Flexibility Score: inf
ROOT
ATOM      1  C   UNL     1       9.266   1.544  -4.336  1.00  0.00     0.006 A 
ATOM      2  C   UNL     1       9.987   2.087  -3.261  1.00  0.00     0.010 A 
ATOM      3  C   UNL     1       9.474   3.165  -2.533  1.00  0.00     0.009 A 
ATOM      4  C   UNL     1       8.230   3.722  -2.855  1.00  0.00    -0.018 A 
ATOM      5  C   UNL     1       7.504   3.169  -3.917  1.00  0.00     0.009 A 
ATOM      6  C   UNL     1       8.012   2.090  -4.647  1.00  0.00     0.010 A 
ENDROOT
BRANCH   1   7
ATOM      7  C   UNL     1       9.819   0.381  -5.123  1.00  0.00     0.300 C 
BRANCH   7   8
ATOM      8  N   UNL     1      10.572   0.705  -6.447  1.00  0.00    -0.325 N 
ATOM      9  C   UNL     1      11.650   1.750  -6.188  1.00  0.00     0.334 C 
ATOM     10  C   UNL     1      11.221  -0.557  -6.999  1.00  0.00     0.334 C 
BRANCH   8  11
ATOM     11  C   UNL     1       9.505   1.246  -7.424  1.00  0.00     0.260 C 
ATOM     12  C   UNL     1       9.634   0.733  -8.849  1.00  0.00     0.071 C 
ENDBRANCH   8  11
ENDBRANCH   7   8
ENDBRANCH   1   7
BRANCH   4  13
ATOM     13  C   UNL     1       7.687   4.850  -2.082  1.00  0.00    -0.010 A 
ATOM     14  C   UNL     1       8.479   6.002  -1.954  1.00  0.00     0.010 A 
ATOM     15  C   UNL     1       6.402   4.815  -1.468  1.00  0.00    -0.009 A 
ATOM     16  C   UNL     1       8.027   7.108  -1.240  1.00  0.00     0.009 A 
ATOM     17  C   UNL     1       5.547   3.697  -1.544  1.00  0.00     0.010 A 
ATOM     18  C   UNL     1       5.945   5.948  -0.741  1.00  0.00    -0.002 A 
ATOM     19  C   UNL     1       6.769   7.093  -0.633  1.00  0.00    -0.017 A 
ATOM     20  C   UNL     1       4.291   3.690  -0.934  1.00  0.00     0.009 A 
ATOM     21  C   UNL     1       4.664   5.947  -0.115  1.00  0.00    -0.002 A 
ATOM     22  C   UNL     1       6.318   8.204   0.081  1.00  0.00     0.009 A 
ATOM     23  C   UNL     1       3.840   4.803  -0.221  1.00  0.00    -0.017 A 
ATOM     24  C   UNL     1       4.208   7.080   0.612  1.00  0.00    -0.009 A 
ATOM     25  C   UNL     1       5.063   8.197   0.692  1.00  0.00     0.010 A 
ATOM     26  C   UNL     1       2.581   4.789   0.387  1.00  0.00     0.009 A 
ATOM     27  C   UNL     1       2.924   7.047   1.225  1.00  0.00    -0.010 A 
ATOM     28  C   UNL     1       2.131   5.896   1.100  1.00  0.00     0.010 A 
BRANCH  27  29
ATOM     29  C   UNL     1       2.383   8.178   1.996  1.00  0.00    -0.018 A 
ATOM     30  C   UNL     1       2.065   9.387   1.364  1.00  0.00     0.012 A 
ATOM     31  C   UNL     1       2.182   8.073   3.380  1.00  0.00     0.012 A 
ATOM     32  C   UNL     1       1.554  10.459   2.100  1.00  0.00     0.047 A 
ATOM     33  C   UNL     1       1.670   9.148   4.116  1.00  0.00     0.047 A 
ATOM     34  C   UNL     1       1.353  10.347   3.477  1.00  0.00     0.118 A 
BRANCH  34  35
ATOM     35  O   UNL     1       0.848  11.468   4.074  1.00  0.00    -0.497 OA
ATOM     36  C   UNL     1       1.655  12.639   4.036  1.00  0.00     0.278 C 
ENDBRANCH  34  35
ENDBRANCH  27  29
ENDBRANCH   4  13
TORSDOF 6
REMARK SMILES CC[N+](C)(C)Cc1ccc(-c2ccc3ccc4c(-c5ccc(OC)cc5)ccc5ccc2c3c54)cc1
REMARK SMILES IDX 7 1 8 2 9 3 10 4 35 5 36 6 6 7 3 8 4 9 5 10 2 11 1 12 11 13
REMARK SMILES IDX 12 14 32 15 13 16 31 17 33 18 14 19 30 20 34 21 15 22 29 23
REMARK SMILES IDX 17 24 16 25 28 26 18 27 27 28 19 29 20 30 26 31 21 32 25 33
REMARK SMILES IDX 22 34 23 35 24 36
REMARK H PARENT
REMARK Flexibility Score: inf
ROOT
ATOM      1  C   UNL     1      -1.652   9.488   0.364  1.00  0.00     0.006 A 
ATOM      2  C   UNL     1      -1.176   9.984  -0.859  1.00  0.00     0.010 A 
ATOM      3  C   UNL     1      -0.228   9.268  -1.596  1.00  0.00     0.009 A 
ATOM      4  C   UNL     1       0.263   8.040  -1.134  1.00  0.00    -0.018 A 
ATOM      5  C   UNL     1      -0.226   7.538   0.079  1.00  0.00     0.009 A 
ATOM      6  C   UNL     1      -1.175   8.250   0.818  1.00  0.00     0.010 A 
ENDROOT
BRANCH   1   7
ATOM      7  C   UNL     1      -2.675  10.261   1.161  1.00  0.00     0.300 C 
BRANCH   7   8
ATOM      8  N   UNL     1      -2.523  11.810   1.211  1.00  0.00    -0.325 N 
ATOM      9  C   UNL     1      -3.196  12.435  -0.005  1.00  0.00     0.334 C 
ATOM     10  C   UNL     1      -3.170  12.355   2.477  1.00  0.00     0.334 C 
BRANCH   8  11
ATOM     11  C   UNL     1      -1.005  12.091   1.205  1.00  0.00     0.260 C 
ATOM     12  C   UNL     1      -0.563  13.156   0.214  1.00  0.00     0.071 C 
ENDBRANCH   8  11
ENDBRANCH   7   8
ENDBRANCH   1   7
BRANCH   4  13
ATOM     13  C   UNL     1       1.253   7.283  -1.916  1.00  0.00    -0.010 A 
ATOM     14  C   UNL     1       0.935   5.965  -2.281  1.00  0.00     0.010 A 
ATOM     15  C   UNL     1       2.505   7.834  -2.311  1.00  0.00    -0.009 A 
ATOM     16  C   UNL     1       1.823   5.193  -3.025  1.00  0.00     0.009 A 
ATOM     17  C   UNL     1       2.904   9.146  -1.982  1.00  0.00     0.010 A 
ATOM     18  C   UNL     1       3.408   7.041  -3.071  1.00  0.00    -0.002 A 
ATOM     19  C   UNL     1       3.055   5.717  -3.423  1.00  0.00    -0.017 A 
ATOM     20  C   UNL     1       4.137   9.661  -2.384  1.00  0.00     0.009 A 
ATOM     21  C   UNL     1       4.669   7.562  -3.484  1.00  0.00    -0.002 A 
ATOM     22  C   UNL     1       3.943   4.940  -4.169  1.00  0.00     0.009 A 
ATOM     23  C   UNL     1       5.024   8.884  -3.133  1.00  0.00    -0.017 A 
ATOM     24  C   UNL     1       5.572   6.767  -4.244  1.00  0.00    -0.009 A 
ATOM     25  C   UNL     1       5.176   5.455  -4.570  1.00  0.00     0.010 A 
ATOM     26  C   UNL     1       6.257   9.408  -3.532  1.00  0.00     0.009 A 
ATOM     27  C   UNL     1       6.823   7.317  -4.641  1.00  0.00    -0.010 A 
ATOM     28  C   UNL     1       7.143   8.634  -4.275  1.00  0.00     0.010 A 
BRANCH  27  29
ATOM     29  C   UNL     1       7.810   6.558  -5.425  1.00  0.00    -0.018 A 
ATOM     30  C   UNL     1       9.135   6.441  -4.988  1.00  0.00     0.012 A 
ATOM     31  C   UNL     1       7.447   5.941  -6.631  1.00  0.00     0.012 A 
ATOM     32  C   UNL     1      10.068   5.720  -5.737  1.00  0.00     0.047 A 
ATOM     33  C   UNL     1       8.384   5.220  -7.381  1.00  0.00     0.047 A 
ATOM     34  C   UNL     1       9.700   5.107  -6.936  1.00  0.00     0.118 A 
BRANCH  34  35
ATOM     35  O   UNL     1      10.709   4.434  -7.567  1.00  0.00    -0.497 OA
ATOM     36  C   UNL     1      10.534   4.162  -8.952  1.00  0.00     0.278 C 
ENDBRANCH  34  35
ENDBRANCH  27  29
ENDBRANCH   4  13
TORSDOF 6
ENDMDL
MODEL 5
REMARK VINA RESULT:   -15.779      2.389     11.233
REMARK INTER + INTRA:         -21.189
REMARK INTER:                 -19.359
REMARK INTRA:                  -1.830
REMARK CONF_INDEPENDENT:        3.580
REMARK UNBOUND:                -1.830
REMARK SMILES CC[N+](C)(C)Cc1ccc(-c2ccc3ccc4c(-c5ccc(OC)cc5)ccc5ccc2c3c54)cc1
REMARK SMILES IDX 7 1 8 2 9 3 10 4 35 5 36 6 6 7 3 8 4 9 5 10 2 11 1 12 11 13
REMARK SMILES IDX 12 14 32 15 13 16 31 17 33 18 14 19 30 20 34 21 15 22 29 23
REMARK SMILES IDX 17 24 16 25 28 26 18 27 27 28 19 29 20 30 26 31 21 32 25 33
REMARK SMILES IDX 22 34 23 35 24 36
REMARK H PARENT
REMARK Flexibility Score: inf
ROOT
ATOM      1  C   UNL     1      10.431   2.577  -4.554  1.00  0.00     0.006 A 
ATOM      2  C   UNL     1       9.702   2.273  -3.395  1.00  0.00     0.010 A 
ATOM      3  C   UNL     1       8.999   3.271  -2.714  1.00  0.00     0.009 A 
ATOM      4  C   UNL     1       9.003   4.594  -3.176  1.00  0.00    -0.018 A 
ATOM      5  C   UNL     1       9.717   4.893  -4.343  1.00  0.00     0.009 A 
ATOM      6  C   UNL     1      10.420   3.897  -5.028  1.00  0.00     0.010 A 
ENDROOT
BRANCH   1   7
ATOM      7  C   UNL     1      11.190   1.499  -5.290  1.00  0.00     0.300 C 
BRANCH   7   8
ATOM      8  N   UNL     1      10.357   0.450  -6.084  1.00  0.00    -0.325 N 
ATOM      9  C   UNL     1      11.210  -0.161  -7.187  1.00  0.00     0.334 C 
ATOM     10  C   UNL     1       9.881  -0.653  -5.148  1.00  0.00     0.334 C 
BRANCH   8  11
ATOM     11  C   UNL     1       9.157   1.220  -6.679  1.00  0.00     0.260 C 
ATOM     12  C   UNL     1       7.832   0.965  -5.979  1.00  0.00     0.071 C 
ENDBRANCH   8  11
ENDBRANCH   7   8
ENDBRANCH   1   7
BRANCH   4  13
ATOM     13  C   UNL     1       8.255   5.642  -2.464  1.00  0.00    -0.010 A 
ATOM     14  C   UNL     1       8.744   6.957  -2.525  1.00  0.00     0.010 A 
ATOM     15  C   UNL     1       7.067   5.373  -1.726  1.00  0.00    -0.009 A 
ATOM     16  C   UNL     1       8.084   7.998  -1.879  1.00  0.00     0.009 A 
ATOM     17  C   UNL     1       6.512   4.082  -1.610  1.00  0.00     0.010 A 
ATOM     18  C   UNL     1       6.396   6.440  -1.069  1.00  0.00    -0.002 A 
ATOM     19  C   UNL     1       6.916   7.753  -1.152  1.00  0.00    -0.017 A 
ATOM     20  C   UNL     1       5.345   3.846  -0.881  1.00  0.00     0.009 A 
ATOM     21  C   UNL     1       5.205   6.206  -0.322  1.00  0.00    -0.002 A 
ATOM     22  C   UNL     1       6.257   8.800  -0.506  1.00  0.00     0.009 A 
ATOM     23  C   UNL     1       4.685   4.895  -0.237  1.00  0.00    -0.017 A 
ATOM     24  C   UNL     1       4.535   7.275   0.335  1.00  0.00    -0.009 A 
ATOM     25  C   UNL     1       5.091   8.565   0.223  1.00  0.00     0.010 A 
ATOM     26  C   UNL     1       3.516   4.651   0.491  1.00  0.00     0.009 A 
ATOM     27  C   UNL     1       3.348   7.008   1.072  1.00  0.00    -0.010 A 
ATOM     28  C   UNL     1       2.858   5.694   1.136  1.00  0.00     0.010 A 
BRANCH  27  29
ATOM     29  C   UNL     1       2.600   8.059   1.781  1.00  0.00    -0.018 A 
ATOM     30  C   UNL     1       2.051   9.141   1.082  1.00  0.00     0.012 A 
ATOM     31  C   UNL     1       2.429   8.005   3.172  1.00  0.00     0.012 A 
ATOM     32  C   UNL     1       1.344  10.138   1.760  1.00  0.00     0.047 A 
ATOM     33  C   UNL     1       1.720   9.004   3.849  1.00  0.00     0.047 A 
ATOM     34  C   UNL     1       1.174  10.076   3.144  1.00  0.00     0.118 A 
BRANCH  34  35
ATOM     35  O   UNL     1       0.463  11.113   3.679  1.00  0.00    -0.497 OA
ATOM     36  C   UNL     1       1.112  12.378   3.738  1.00  0.00     0.278 C 
ENDBRANCH  34  35
ENDBRANCH  27  29
ENDBRANCH   4  13
TORSDOF 6
REMARK SMILES CC[N+](C)(C)Cc1ccc(-c2ccc3ccc4c(-c5ccc(OC)cc5)ccc5ccc2c3c54)cc1
REMARK SMILES IDX 7 1 8 2 9 3 10 4 35 5 36 6 6 7 3 8 4 9 5 10 2 11 1 12 11 13
REMARK SMILES IDX 12 14 32 15 13 16 31 17 33 18 14 19 30 20 34 21 15 22 29 23
REMARK SMILES IDX 17 24 16 25 28 26 18 27 27 28 19 29 20 30 26 31 21 32 25 33
REMARK SMILES IDX 22 34 23 35 24 36
REMARK H PARENT
REMARK Flexibility Score: inf
ROOT
ATOM      1  C   UNL     1      -0.802   5.159  -0.447  1.00  0.00     0.006 A 
ATOM      2  C   UNL     1      -0.790   6.559  -0.540  1.00  0.00     0.010 A 
ATOM      3  C   UNL     1       0.273   7.223  -1.159  1.00  0.00     0.009 A 
ATOM      4  C   UNL     1       1.345   6.507  -1.706  1.00  0.00    -0.018 A 
ATOM      5  C   UNL     1       1.325   5.109  -1.628  1.00  0.00     0.009 A 
ATOM      6  C   UNL     1       0.263   4.441  -1.011  1.00  0.00     0.010 A 
ENDROOT
BRANCH   1   7
ATOM      7  C   UNL     1      -1.949   4.442   0.222  1.00  0.00     0.300 C 
BRANCH   7   8
ATOM      8  N   UNL     1      -1.877   4.262   1.767  1.00  0.00    -0.325 N 
ATOM      9  C   UNL     1      -2.736   5.317   2.452  1.00  0.00     0.334 C 
ATOM     10  C   UNL     1      -2.382   2.877   2.153  1.00  0.00     0.334 C 
BRANCH   8  11
ATOM     11  C   UNL     1      -0.390   4.430   2.148  1.00  0.00     0.260 C 
ATOM     12  C   UNL     1      -0.122   5.516   3.178  1.00  0.00     0.071 C 
ENDBRANCH   8  11
ENDBRANCH   7   8
ENDBRANCH   1   7
BRANCH   4  13
ATOM     13  C   UNL     1       2.459   7.206  -2.366  1.00  0.00    -0.010 A 
ATOM     14  C   UNL     1       2.578   8.591  -2.166  1.00  0.00     0.010 A 
ATOM     15  C   UNL     1       3.409   6.536  -3.189  1.00  0.00    -0.009 A 
ATOM     16  C   UNL     1       3.610   9.315  -2.756  1.00  0.00     0.009 A 
ATOM     17  C   UNL     1       3.358   5.151  -3.446  1.00  0.00     0.010 A 
ATOM     18  C   UNL     1       4.461   7.280  -3.789  1.00  0.00    -0.002 A 
ATOM     19  C   UNL     1       4.552   8.674  -3.565  1.00  0.00    -0.017 A 
ATOM     20  C   UNL     1       4.304   4.519  -4.255  1.00  0.00     0.009 A 
ATOM     21  C   UNL     1       5.429   6.642  -4.617  1.00  0.00    -0.002 A 
ATOM     22  C   UNL     1       5.585   9.404  -4.155  1.00  0.00     0.009 A 
ATOM     23  C   UNL     1       5.339   5.249  -4.843  1.00  0.00    -0.017 A 
ATOM     24  C   UNL     1       6.480   7.387  -5.217  1.00  0.00    -0.009 A 
ATOM     25  C   UNL     1       6.530   8.772  -4.965  1.00  0.00     0.010 A 
ATOM     26  C   UNL     1       6.282   4.609  -5.653  1.00  0.00     0.009 A 
ATOM     27  C   UNL     1       7.431   6.719  -6.039  1.00  0.00    -0.010 A 
ATOM     28  C   UNL     1       7.313   5.335  -6.242  1.00  0.00     0.010 A 
BRANCH  27  29
ATOM     29  C   UNL     1       8.545   7.422  -6.696  1.00  0.00    -0.018 A 
ATOM     30  C   UNL     1       8.480   7.754  -8.054  1.00  0.00     0.012 A 
ATOM     31  C   UNL     1       9.699   7.766  -5.977  1.00  0.00     0.012 A 
ATOM     32  C   UNL     1       9.541   8.420  -8.673  1.00  0.00     0.047 A 
ATOM     33  C   UNL     1      10.761   8.433  -6.599  1.00  0.00     0.047 A 
ATOM     34  C   UNL     1      10.686   8.763  -7.952  1.00  0.00     0.118 A 
BRANCH  34  35
ATOM     35  O   UNL     1      11.646   9.411  -8.677  1.00  0.00    -0.497 OA
ATOM     36  C   UNL     1      11.658  10.832  -8.608  1.00  0.00     0.278 C 
ENDBRANCH  34  35
ENDBRANCH  27  29
ENDBRANCH   4  13
TORSDOF 6
ENDMDL
MODEL 6
REMARK VINA RESULT:   -15.713      2.412      4.521
REMARK INTER + INTRA:         -21.210
REMARK INTER:                 -19.293
REMARK INTRA:                  -1.918
REMARK CONF_INDEPENDENT:        3.580
REMARK UNBOUND:                -1.918
REMARK SMILES CC[N+](C)(C)Cc1ccc(-c2ccc3ccc4c(-c5ccc(OC)cc5)ccc5ccc2c3c54)cc1
REMARK SMILES IDX 7 1 8 2 9 3 10 4 35 5 36 6 6 7 3 8 4 9 5 10 2 11 1 12 11 13
REMARK SMILES IDX 12 14 32 15 13 16 31 17 33 18 14 19 30 20 34 21 15 22 29 23
REMARK SMILES IDX 17 24 16 25 28 26 18 27 27 28 19 29 20 30 26 31 21 32 25 33
REMARK SMILES IDX 22 34 23 35 24 36
REMARK H PARENT
REMARK Flexibility Score: inf
ROOT
ATOM      1  C   UNL     1      -0.828   5.160  -0.484  1.00  0.00     0.006 A 
ATOM      2  C   UNL     1       0.285   4.443  -0.946  1.00  0.00     0.010 A 
ATOM      3  C   UNL     1       1.348   5.102  -1.571  1.00  0.00     0.009 A 
ATOM      4  C   UNL     1       1.328   6.492  -1.744  1.00  0.00    -0.018 A 
ATOM      5  C   UNL     1       0.224   7.210  -1.267  1.00  0.00     0.009 A 
ATOM      6  C   UNL     1      -0.840   6.554  -0.640  1.00  0.00     0.010 A 
ENDROOT
BRANCH   1   7
ATOM      7  C   UNL     1      -1.976   4.449   0.190  1.00  0.00     0.300 C 
BRANCH   7   8
ATOM      8  N   UNL     1      -1.888   4.248   1.732  1.00  0.00    -0.325 N 
ATOM      9  C   UNL     1      -3.063   4.939   2.413  1.00  0.00     0.334 C 
ATOM     10  C   UNL     1      -1.918   2.762   2.066  1.00  0.00     0.334 C 
BRANCH   8  11
ATOM     11  C   UNL     1      -0.549   4.882   2.170  1.00  0.00     0.260 C 
ATOM     12  C   UNL     1       0.500   3.885   2.635  1.00  0.00     0.071 C 
ENDBRANCH   8  11
ENDBRANCH   7   8
ENDBRANCH   1   7
BRANCH   4  13
ATOM     13  C   UNL     1       2.451   7.186  -2.393  1.00  0.00    -0.010 A 
ATOM     14  C   UNL     1       2.575   8.570  -2.192  1.00  0.00     0.010 A 
ATOM     15  C   UNL     1       3.407   6.511  -3.205  1.00  0.00    -0.009 A 
ATOM     16  C   UNL     1       3.617   9.289  -2.771  1.00  0.00     0.009 A 
ATOM     17  C   UNL     1       3.353   5.125  -3.461  1.00  0.00     0.010 A 
ATOM     18  C   UNL     1       4.469   7.250  -3.794  1.00  0.00    -0.002 A 
ATOM     19  C   UNL     1       4.564   8.643  -3.570  1.00  0.00    -0.017 A 
ATOM     20  C   UNL     1       4.304   4.489  -4.260  1.00  0.00     0.009 A 
ATOM     21  C   UNL     1       5.443   6.606  -4.612  1.00  0.00    -0.002 A 
ATOM     22  C   UNL     1       5.607   9.367  -4.149  1.00  0.00     0.009 A 
ATOM     23  C   UNL     1       5.349   5.213  -4.838  1.00  0.00    -0.017 A 
ATOM     24  C   UNL     1       6.504   7.346  -5.201  1.00  0.00    -0.009 A 
ATOM     25  C   UNL     1       6.557   8.731  -4.949  1.00  0.00     0.010 A 
ATOM     26  C   UNL     1       6.298   4.569  -5.637  1.00  0.00     0.009 A 
ATOM     27  C   UNL     1       7.460   6.673  -6.012  1.00  0.00    -0.010 A 
ATOM     28  C   UNL     1       7.338   5.289  -6.215  1.00  0.00     0.010 A 
BRANCH  27  29
ATOM     29  C   UNL     1       8.585   7.369  -6.657  1.00  0.00    -0.018 A 
ATOM     30  C   UNL     1       8.667   7.457  -8.052  1.00  0.00     0.012 A 
ATOM     31  C   UNL     1       9.602   7.954  -5.889  1.00  0.00     0.012 A 
ATOM     32  C   UNL     1       9.737   8.119  -8.660  1.00  0.00     0.047 A 
ATOM     33  C   UNL     1      10.674   8.616  -6.499  1.00  0.00     0.047 A 
ATOM     34  C   UNL     1      10.745   8.701  -7.890  1.00  0.00     0.118 A 
BRANCH  34  35
ATOM     35  O   UNL     1      11.731   9.316  -8.609  1.00  0.00    -0.497 OA
ATOM     36  C   UNL     1      11.546  10.693  -8.910  1.00  0.00     0.278 C 
ENDBRANCH  34  35
ENDBRANCH  27  29
ENDBRANCH   4  13
TORSDOF 6
REMARK SMILES CC[N+](C)(C)Cc1ccc(-c2ccc3ccc4c(-c5ccc(OC)cc5)ccc5ccc2c3c54)cc1
REMARK SMILES IDX 7 1 8 2 9 3 10 4 35 5 36 6 6 7 3 8 4 9 5 10 2 11 1 12 11 13
REMARK SMILES IDX 12 14 32 15 13 16 31 17 33 18 14 19 30 20 34 21 15 22 29 23
REMARK SMILES IDX 17 24 16 25 28 26 18 27 27 28 19 29 20 30 26 31 21 32 25 33
REMARK SMILES IDX 22 34 23 35 24 36
REMARK H PARENT
REMARK Flexibility Score: inf
ROOT
ATOM      1  C   UNL     1      10.612   2.664  -4.495  1.00  0.00     0.006 A 
ATOM      2  C   UNL     1      10.538   3.970  -5.003  1.00  0.00     0.010 A 
ATOM      3  C   UNL     1       9.797   4.951  -4.337  1.00  0.00     0.009 A 
ATOM      4  C   UNL     1       9.118   4.655  -3.148  1.00  0.00    -0.018 A 
ATOM      5  C   UNL     1       9.207   3.356  -2.633  1.00  0.00     0.009 A 
ATOM      6  C   UNL     1       9.948   2.372  -3.294  1.00  0.00     0.010 A 
ENDROOT
BRANCH   1   7
ATOM      7  C   UNL     1      11.411   1.604  -5.213  1.00  0.00     0.300 C 
BRANCH   7   8
ATOM      8  N   UNL     1      10.713   0.849  -6.382  1.00  0.00    -0.325 N 
ATOM      9  C   UNL     1      10.848   1.652  -7.670  1.00  0.00     0.334 C 
ATOM     10  C   UNL     1      11.353  -0.519  -6.575  1.00  0.00     0.334 C 
BRANCH   8  11
ATOM     11  C   UNL     1       9.230   0.709  -5.975  1.00  0.00     0.260 C 
ATOM     12  C   UNL     1       8.296   1.714  -6.630  1.00  0.00     0.071 C 
ENDBRANCH   8  11
ENDBRANCH   7   8
ENDBRANCH   1   7
BRANCH   4  13
ATOM     13  C   UNL     1       8.347   5.691  -2.444  1.00  0.00    -0.010 A 
ATOM     14  C   UNL     1       8.814   7.014  -2.503  1.00  0.00     0.010 A 
ATOM     15  C   UNL     1       7.158   5.403  -1.715  1.00  0.00    -0.009 A 
ATOM     16  C   UNL     1       8.131   8.045  -1.864  1.00  0.00     0.009 A 
ATOM     17  C   UNL     1       6.624   4.103  -1.601  1.00  0.00     0.010 A 
ATOM     18  C   UNL     1       6.464   6.460  -1.065  1.00  0.00    -0.002 A 
ATOM     19  C   UNL     1       6.962   7.782  -1.146  1.00  0.00    -0.017 A 
ATOM     20  C   UNL     1       5.455   3.849  -0.882  1.00  0.00     0.009 A 
ATOM     21  C   UNL     1       5.270   6.208  -0.328  1.00  0.00    -0.002 A 
ATOM     22  C   UNL     1       6.280   8.818  -0.507  1.00  0.00     0.009 A 
ATOM     23  C   UNL     1       4.772   4.888  -0.245  1.00  0.00    -0.017 A 
ATOM     24  C   UNL     1       4.578   7.266   0.322  1.00  0.00    -0.009 A 
ATOM     25  C   UNL     1       5.112   8.565   0.213  1.00  0.00     0.010 A 
ATOM     26  C   UNL     1       3.601   4.626   0.474  1.00  0.00     0.009 A 
ATOM     27  C   UNL     1       3.389   6.980   1.050  1.00  0.00    -0.010 A 
ATOM     28  C   UNL     1       2.921   5.658   1.112  1.00  0.00     0.010 A 
BRANCH  27  29
ATOM     29  C   UNL     1       2.618   8.019   1.751  1.00  0.00    -0.018 A 
ATOM     30  C   UNL     1       2.415   7.949   3.135  1.00  0.00     0.012 A 
ATOM     31  C   UNL     1       2.065   9.099   1.047  1.00  0.00     0.012 A 
ATOM     32  C   UNL     1       1.681   8.938   3.795  1.00  0.00     0.047 A 
ATOM     33  C   UNL     1       1.329  10.089   1.711  1.00  0.00     0.047 A 
ATOM     34  C   UNL     1       1.135  10.011   3.090  1.00  0.00     0.118 A 
BRANCH  34  35
ATOM     35  O   UNL     1       0.442  10.906   3.856  1.00  0.00    -0.497 OA
ATOM     36  C   UNL     1       1.101  12.125   4.179  1.00  0.00     0.278 C 
ENDBRANCH  34  35
ENDBRANCH  27  29
ENDBRANCH   4  13
TORSDOF 6
ENDMDL
MODEL 7
REMARK VINA RESULT:   -15.092      1.421      2.223
REMARK INTER + INTRA:         -20.162
REMARK INTER:                 -18.672
REMARK INTRA:                  -1.490
REMARK CONF_INDEPENDENT:        3.580
REMARK UNBOUND:                -1.490
REMARK SMILES CC[N+](C)(C)Cc1ccc(-c2ccc3ccc4c(-c5ccc(OC)cc5)ccc5ccc2c3c54)cc1
REMARK SMILES IDX 7 1 8 2 9 3 10 4 35 5 36 6 6 7 3 8 4 9 5 10 2 11 1 12 11 13
REMARK SMILES IDX 12 14 32 15 13 16 31 17 33 18 14 19 30 20 34 21 15 22 29 23
REMARK SMILES IDX 17 24 16 25 28 26 18 27 27 28 19 29 20 30 26 31 21 32 25 33
REMARK SMILES IDX 22 34 23 35 24 36
REMARK H PARENT
REMARK Flexibility Score: inf
ROOT
ATOM      1  C   UNL     1       0.101  10.715   1.289  1.00  0.00     0.006 A 
ATOM      2  C   UNL     1      -0.501  10.295   0.094  1.00  0.00     0.010 A 
ATOM      3  C   UNL     1       0.236   9.594  -0.866  1.00  0.00     0.009 A 
ATOM      4  C   UNL     1       1.587   9.292  -0.654  1.00  0.00    -0.018 A 
ATOM      5  C   UNL     1       2.182   9.698   0.547  1.00  0.00     0.009 A 
ATOM      6  C   UNL     1       1.449  10.397   1.510  1.00  0.00     0.010 A 
ENDROOT
BRANCH   1   7
ATOM      7  C   UNL     1      -0.693  11.471   2.326  1.00  0.00     0.300 C 
BRANCH   7   8
ATOM      8  N   UNL     1      -1.652  12.589   1.819  1.00  0.00    -0.325 N 
ATOM      9  C   UNL     1      -0.952  13.431   0.759  1.00  0.00     0.334 C 
ATOM     10  C   UNL     1      -2.905  11.966   1.217  1.00  0.00     0.334 C 
BRANCH   8  11
ATOM     11  C   UNL     1      -2.004  13.444   3.056  1.00  0.00     0.260 C 
ATOM     12  C   UNL     1      -2.668  12.675   4.187  1.00  0.00     0.071 C 
ENDBRANCH   8  11
ENDBRANCH   7   8
ENDBRANCH   1   7
BRANCH   4  13
ATOM     13  C   UNL     1       2.358   8.547  -1.661  1.00  0.00    -0.010 A 
ATOM     14  C   UNL     1       1.658   7.687  -2.522  1.00  0.00     0.010 A 
ATOM     15  C   UNL     1       3.771   8.667  -1.792  1.00  0.00    -0.009 A 
ATOM     16  C   UNL     1       2.324   6.954  -3.501  1.00  0.00     0.009 A 
ATOM     17  C   UNL     1       4.550   9.503  -0.965  1.00  0.00     0.010 A 
ATOM     18  C   UNL     1       4.446   7.917  -2.794  1.00  0.00    -0.002 A 
ATOM     19  C   UNL     1       3.710   7.061  -3.646  1.00  0.00    -0.017 A 
ATOM     20  C   UNL     1       5.933   9.604  -1.117  1.00  0.00     0.009 A 
ATOM     21  C   UNL     1       5.859   8.015  -2.953  1.00  0.00    -0.002 A 
ATOM     22  C   UNL     1       4.373   6.325  -4.628  1.00  0.00     0.009 A 
ATOM     23  C   UNL     1       6.597   8.869  -2.102  1.00  0.00    -0.017 A 
ATOM     24  C   UNL     1       6.533   7.264  -3.955  1.00  0.00    -0.009 A 
ATOM     25  C   UNL     1       5.757   6.425  -4.780  1.00  0.00     0.010 A 
ATOM     26  C   UNL     1       7.983   8.975  -2.248  1.00  0.00     0.009 A 
ATOM     27  C   UNL     1       7.945   7.384  -4.088  1.00  0.00    -0.010 A 
ATOM     28  C   UNL     1       8.646   8.242  -3.227  1.00  0.00     0.010 A 
BRANCH  27  29
ATOM     29  C   UNL     1       8.713   6.639  -5.099  1.00  0.00    -0.018 A 
ATOM     30  C   UNL     1       8.928   7.176  -6.374  1.00  0.00     0.012 A 
ATOM     31  C   UNL     1       9.239   5.371  -4.809  1.00  0.00     0.012 A 
ATOM     32  C   UNL     1       9.656   6.464  -7.330  1.00  0.00     0.047 A 
ATOM     33  C   UNL     1       9.968   4.659  -5.769  1.00  0.00     0.047 A 
ATOM     34  C   UNL     1      10.180   5.204  -7.035  1.00  0.00     0.118 A 
BRANCH  34  35
ATOM     35  O   UNL     1      10.871   4.618  -8.059  1.00  0.00    -0.497 OA
ATOM     36  C   UNL     1      11.275   5.462  -9.130  1.00  0.00     0.278 C 
ENDBRANCH  34  35
ENDBRANCH  27  29
ENDBRANCH   4  13
TORSDOF 6
REMARK SMILES CC[N+](C)(C)Cc1ccc(-c2ccc3ccc4c(-c5ccc(OC)cc5)ccc5ccc2c3c54)cc1
REMARK SMILES IDX 7 1 8 2 9 3 10 4 35 5 36 6 6 7 3 8 4 9 5 10 2 11 1 12 11 13
REMARK SMILES IDX 12 14 32 15 13 16 31 17 33 18 14 19 30 20 34 21 15 22 29 23
REMARK SMILES IDX 17 24 16 25 28 26 18 27 27 28 19 29 20 30 26 31 21 32 25 33
REMARK SMILES IDX 22 34 23 35 24 36
REMARK H PARENT
REMARK Flexibility Score: inf
ROOT
ATOM      1  C   UNL     1       7.284   1.629  -5.392  1.00  0.00     0.006 A 
ATOM      2  C   UNL     1       6.464   2.747  -5.614  1.00  0.00     0.010 A 
ATOM      3  C   UNL     1       6.137   3.609  -4.564  1.00  0.00     0.009 A 
ATOM      4  C   UNL     1       6.624   3.381  -3.270  1.00  0.00    -0.018 A 
ATOM      5  C   UNL     1       7.455   2.275  -3.053  1.00  0.00     0.009 A 
ATOM      6  C   UNL     1       7.786   1.411  -4.101  1.00  0.00     0.010 A 
ENDROOT
BRANCH   1   7
ATOM      7  C   UNL     1       7.637   0.697  -6.526  1.00  0.00     0.300 C 
BRANCH   7   8
ATOM      8  N   UNL     1       8.605   1.235  -7.620  1.00  0.00    -0.325 N 
ATOM      9  C   UNL     1       9.879   1.763  -6.972  1.00  0.00     0.334 C 
ATOM     10  C   UNL     1       8.964   0.118  -8.592  1.00  0.00     0.334 C 
BRANCH   8  11
ATOM     11  C   UNL     1       7.846   2.369  -8.343  1.00  0.00     0.260 C 
ATOM     12  C   UNL     1       6.581   1.925  -9.060  1.00  0.00     0.071 C 
ENDBRANCH   8  11
ENDBRANCH   7   8
ENDBRANCH   1   7
BRANCH   4  13
ATOM     13  C   UNL     1       6.287   4.296  -2.168  1.00  0.00    -0.010 A 
ATOM     14  C   UNL     1       7.321   5.064  -1.610  1.00  0.00     0.010 A 
ATOM     15  C   UNL     1       4.965   4.427  -1.654  1.00  0.00    -0.009 A 
ATOM     16  C   UNL     1       7.073   5.953  -0.568  1.00  0.00     0.009 A 
ATOM     17  C   UNL     1       3.872   3.690  -2.153  1.00  0.00     0.010 A 
ATOM     18  C   UNL     1       4.717   5.337  -0.590  1.00  0.00    -0.002 A 
ATOM     19  C   UNL     1       5.782   6.097  -0.053  1.00  0.00    -0.017 A 
ATOM     20  C   UNL     1       2.585   3.840  -1.632  1.00  0.00     0.009 A 
ATOM     21  C   UNL     1       3.406   5.495  -0.053  1.00  0.00    -0.002 A 
ATOM     22  C   UNL     1       5.537   6.989   0.992  1.00  0.00     0.009 A 
ATOM     23  C   UNL     1       2.340   4.735  -0.588  1.00  0.00    -0.017 A 
ATOM     24  C   UNL     1       3.159   6.405   1.011  1.00  0.00    -0.009 A 
ATOM     25  C   UNL     1       4.251   7.139   1.513  1.00  0.00     0.010 A 
ATOM     26  C   UNL     1       1.049   4.881  -0.072  1.00  0.00     0.009 A 
ATOM     27  C   UNL     1       1.838   6.538   1.525  1.00  0.00    -0.010 A 
ATOM     28  C   UNL     1       0.803   5.770   0.970  1.00  0.00     0.010 A 
BRANCH  27  29
ATOM     29  C   UNL     1       1.505   7.456   2.625  1.00  0.00    -0.018 A 
ATOM     30  C   UNL     1       2.513   8.024   3.414  1.00  0.00     0.012 A 
ATOM     31  C   UNL     1       0.170   7.776   2.913  1.00  0.00     0.012 A 
ATOM     32  C   UNL     1       2.190   8.894   4.459  1.00  0.00     0.047 A 
ATOM     33  C   UNL     1      -0.151   8.647   3.961  1.00  0.00     0.047 A 
ATOM     34  C   UNL     1       0.860   9.210   4.739  1.00  0.00     0.118 A 
BRANCH  34  35
ATOM     35  O   UNL     1       0.685  10.072   5.785  1.00  0.00    -0.497 OA
ATOM     36  C   UNL     1       0.932  11.450   5.534  1.00  0.00     0.278 C 
ENDBRANCH  34  35
ENDBRANCH  27  29
ENDBRANCH   4  13
TORSDOF 6
ENDMDL
MODEL 8
REMARK VINA RESULT:   -15.064      1.867     11.276
REMARK INTER + INTRA:         -20.475
REMARK INTER:                 -18.644
REMARK INTRA:                  -1.831
REMARK CONF_INDEPENDENT:        3.580
REMARK UNBOUND:                -1.831
REMARK SMILES CC[N+](C)(C)Cc1ccc(-c2ccc3ccc4c(-c5ccc(OC)cc5)ccc5ccc2c3c54)cc1
REMARK SMILES IDX 7 1 8 2 9 3 10 4 35 5 36 6 6 7 3 8 4 9 5 10 2 11 1 12 11 13
REMARK SMILES IDX 12 14 32 15 13 16 31 17 33 18 14 19 30 20 34 21 15 22 29 23
REMARK SMILES IDX 17 24 16 25 28 26 18 27 27 28 19 29 20 30 26 31 21 32 25 33
REMARK SMILES IDX 22 34 23 35 24 36
REMARK H PARENT
REMARK Flexibility Score: inf
ROOT
ATOM      1  C   UNL     1      10.447   2.924  -2.096  1.00  0.00     0.006 A 
ATOM      2  C   UNL     1       9.771   3.161  -0.889  1.00  0.00     0.010 A 
ATOM      3  C   UNL     1       8.905   4.252  -0.762  1.00  0.00     0.009 A 
ATOM      4  C   UNL     1       8.690   5.126  -1.834  1.00  0.00    -0.018 A 
ATOM      5  C   UNL     1       9.352   4.879  -3.043  1.00  0.00     0.009 A 
ATOM      6  C   UNL     1      10.217   3.789  -3.176  1.00  0.00     0.010 A 
ENDROOT
BRANCH   1   7
ATOM      7  C   UNL     1      11.382   1.747  -2.235  1.00  0.00     0.300 C 
BRANCH   7   8
ATOM      8  N   UNL     1      10.796   0.433  -2.832  1.00  0.00    -0.325 N 
ATOM      9  C   UNL     1      10.811   0.504  -4.353  1.00  0.00     0.334 C 
ATOM     10  C   UNL     1      11.627  -0.760  -2.377  1.00  0.00     0.334 C 
BRANCH   8  11
ATOM     11  C   UNL     1       9.350   0.330  -2.300  1.00  0.00     0.260 C 
ATOM     12  C   UNL     1       8.291   0.888  -3.237  1.00  0.00     0.071 C 
ENDBRANCH   8  11
ENDBRANCH   7   8
ENDBRANCH   1   7
BRANCH   4  13
ATOM     13  C   UNL     1       7.771   6.268  -1.701  1.00  0.00    -0.010 A 
ATOM     14  C   UNL     1       8.077   7.445  -2.403  1.00  0.00     0.010 A 
ATOM     15  C   UNL     1       6.596   6.220  -0.898  1.00  0.00    -0.009 A 
ATOM     16  C   UNL     1       7.250   8.562  -2.327  1.00  0.00     0.009 A 
ATOM     17  C   UNL     1       6.219   5.081  -0.158  1.00  0.00     0.010 A 
ATOM     18  C   UNL     1       5.754   7.364  -0.824  1.00  0.00    -0.002 A 
ATOM     19  C   UNL     1       6.092   8.533  -1.545  1.00  0.00    -0.017 A 
ATOM     20  C   UNL     1       5.060   5.061   0.621  1.00  0.00     0.009 A 
ATOM     21  C   UNL     1       4.570   7.350  -0.030  1.00  0.00    -0.002 A 
ATOM     22  C   UNL     1       5.265   9.654  -1.471  1.00  0.00     0.009 A 
ATOM     23  C   UNL     1       4.232   6.183   0.692  1.00  0.00    -0.017 A 
ATOM     24  C   UNL     1       3.729   8.494   0.044  1.00  0.00    -0.009 A 
ATOM     25  C   UNL     1       4.107   9.635  -0.692  1.00  0.00     0.010 A 
ATOM     26  C   UNL     1       3.073   6.156   1.474  1.00  0.00     0.009 A 
ATOM     27  C   UNL     1       2.554   8.448   0.846  1.00  0.00    -0.010 A 
ATOM     28  C   UNL     1       2.247   7.273   1.549  1.00  0.00     0.010 A 
BRANCH  27  29
ATOM     29  C   UNL     1       1.636   9.591   0.974  1.00  0.00    -0.018 A 
ATOM     30  C   UNL     1       1.632  10.379   2.132  1.00  0.00     0.012 A 
ATOM     31  C   UNL     1       0.741   9.911  -0.057  1.00  0.00     0.012 A 
ATOM     32  C   UNL     1       0.757  11.462   2.249  1.00  0.00     0.047 A 
ATOM     33  C   UNL     1      -0.135  10.997   0.062  1.00  0.00     0.047 A 
ATOM     34  C   UNL     1      -0.130  11.778   1.218  1.00  0.00     0.118 A 
BRANCH  34  35
ATOM     35  O   UNL     1      -0.928  12.860   1.462  1.00  0.00    -0.497 OA
ATOM     36  C   UNL     1      -1.448  13.546   0.330  1.00  0.00     0.278 C 
ENDBRANCH  34  35
ENDBRANCH  27  29
ENDBRANCH   4  13
TORSDOF 6
REMARK SMILES CC[N+](C)(C)Cc1ccc(-c2ccc3ccc4c(-c5ccc(OC)cc5)ccc5ccc2c3c54)cc1
REMARK SMILES IDX 7 1 8 2 9 3 10 4 35 5 36 6 6 7 3 8 4 9 5 10 2 11 1 12 11 13
REMARK SMILES IDX 12 14 32 15 13 16 31 17 33 18 14 19 30 20 34 21 15 22 29 23
REMARK SMILES IDX 17 24 16 25 28 26 18 27 27 28 19 29 20 30 26 31 21 32 25 33
REMARK SMILES IDX 22 34 23 35 24 36
REMARK H PARENT
REMARK Flexibility Score: inf
ROOT
ATOM      1  C   UNL     1      -1.275   6.873  -0.169  1.00  0.00     0.006 A 
ATOM      2  C   UNL     1      -0.730   7.565  -1.261  1.00  0.00     0.010 A 
ATOM      3  C   UNL     1       0.451   7.125  -1.866  1.00  0.00     0.009 A 
ATOM      4  C   UNL     1       1.113   5.982  -1.399  1.00  0.00    -0.018 A 
ATOM      5  C   UNL     1       0.560   5.283  -0.319  1.00  0.00     0.009 A 
ATOM      6  C   UNL     1      -0.621   5.718   0.287  1.00  0.00     0.010 A 
ENDROOT
BRANCH   1   7
ATOM      7  C   UNL     1      -2.549   7.348   0.485  1.00  0.00     0.300 C 
BRANCH   7   8
ATOM      8  N   UNL     1      -2.430   8.021   1.884  1.00  0.00    -0.325 N 
ATOM      9  C   UNL     1      -0.963   8.134   2.280  1.00  0.00     0.334 C 
ATOM     10  C   UNL     1      -3.047   9.413   1.845  1.00  0.00     0.334 C 
BRANCH   8  11
ATOM     11  C   UNL     1      -3.196   7.108   2.865  1.00  0.00     0.260 C 
ATOM     12  C   UNL     1      -2.313   6.184   3.688  1.00  0.00     0.071 C 
ENDBRANCH   8  11
ENDBRANCH   7   8
ENDBRANCH   1   7
BRANCH   4  13
ATOM     13  C   UNL     1       2.351   5.515  -2.043  1.00  0.00    -0.010 A 
ATOM     14  C   UNL     1       2.770   4.200  -1.786  1.00  0.00     0.010 A 
ATOM     15  C   UNL     1       3.127   6.338  -2.907  1.00  0.00    -0.009 A 
ATOM     16  C   UNL     1       3.929   3.690  -2.365  1.00  0.00     0.009 A 
ATOM     17  C   UNL     1       2.781   7.670  -3.213  1.00  0.00     0.010 A 
ATOM     18  C   UNL     1       4.310   5.813  -3.497  1.00  0.00    -0.002 A 
ATOM     19  C   UNL     1       4.702   4.483  -3.217  1.00  0.00    -0.017 A 
ATOM     20  C   UNL     1       3.559   8.455  -4.066  1.00  0.00     0.009 A 
ATOM     21  C   UNL     1       5.110   6.609  -4.367  1.00  0.00    -0.002 A 
ATOM     22  C   UNL     1       5.863   3.968  -3.796  1.00  0.00     0.009 A 
ATOM     23  C   UNL     1       4.719   7.938  -4.646  1.00  0.00    -0.017 A 
ATOM     24  C   UNL     1       6.292   6.082  -4.955  1.00  0.00    -0.009 A 
ATOM     25  C   UNL     1       6.642   4.753  -4.647  1.00  0.00     0.010 A 
ATOM     26  C   UNL     1       5.494   8.731  -5.499  1.00  0.00     0.009 A 
ATOM     27  C   UNL     1       7.069   6.904  -5.820  1.00  0.00    -0.010 A 
ATOM     28  C   UNL     1       6.652   8.219  -6.077  1.00  0.00     0.010 A 
BRANCH  27  29
ATOM     29  C   UNL     1       8.305   6.431  -6.464  1.00  0.00    -0.018 A 
ATOM     30  C   UNL     1       8.290   5.965  -7.785  1.00  0.00     0.012 A 
ATOM     31  C   UNL     1       9.522   6.431  -5.768  1.00  0.00     0.012 A 
ATOM     32  C   UNL     1       9.466   5.516  -8.391  1.00  0.00     0.047 A 
ATOM     33  C   UNL     1      10.699   5.981  -6.377  1.00  0.00     0.047 A 
ATOM     34  C   UNL     1      10.675   5.521  -7.694  1.00  0.00     0.118 A 
BRANCH  34  35
ATOM     35  O   UNL     1      11.747   5.057  -8.404  1.00  0.00    -0.497 OA
ATOM     36  C   UNL     1      11.646   3.743  -8.940  1.00  0.00     0.278 C 
ENDBRANCH  34  35
ENDBRANCH  27  29
ENDBRANCH   4  13
TORSDOF 6
ENDMDL
MODEL 9
REMARK VINA RESULT:   -15.000      2.422      4.667
REMARK INTER + INTRA:         -20.893
REMARK INTER:                 -18.580
REMARK INTRA:                  -2.314
REMARK CONF_INDEPENDENT:        3.580
REMARK UNBOUND:                -2.314
REMARK SMILES CC[N+](C)(C)Cc1ccc(-c2ccc3ccc4c(-c5ccc(OC)cc5)ccc5ccc2c3c54)cc1
REMARK SMILES IDX 7 1 8 2 9 3 10 4 35 5 36 6 6 7 3 8 4 9 5 10 2 11 1 12 11 13
REMARK SMILES IDX 12 14 32 15 13 16 31 17 33 18 14 19 30 20 34 21 15 22 29 23
REMARK SMILES IDX 17 24 16 25 28 26 18 27 27 28 19 29 20 30 26 31 21 32 25 33
REMARK SMILES IDX 22 34 23 35 24 36
REMARK H PARENT
REMARK Flexibility Score: inf
ROOT
ATOM      1  C   UNL     1      -1.510   4.435   1.528  1.00  0.00     0.006 A 
ATOM      2  C   UNL     1      -1.198   5.802   1.596  1.00  0.00     0.010 A 
ATOM      3  C   UNL     1      -0.340   6.384   0.658  1.00  0.00     0.009 A 
ATOM      4  C   UNL     1       0.223   5.619  -0.372  1.00  0.00    -0.018 A 
ATOM      5  C   UNL     1      -0.102   4.259  -0.449  1.00  0.00     0.009 A 
ATOM      6  C   UNL     1      -0.961   3.673   0.486  1.00  0.00     0.010 A 
ENDROOT
BRANCH   1   7
ATOM      7  C   UNL     1      -2.435   3.806   2.540  1.00  0.00     0.300 C 
BRANCH   7   8
ATOM      8  N   UNL     1      -1.783   3.051   3.736  1.00  0.00    -0.325 N 
ATOM      9  C   UNL     1      -2.067   3.796   5.034  1.00  0.00     0.334 C 
ATOM     10  C   UNL     1      -2.350   1.641   3.832  1.00  0.00     0.334 C 
BRANCH   8  11
ATOM     11  C   UNL     1      -0.267   3.015   3.442  1.00  0.00     0.260 C 
ATOM     12  C   UNL     1       0.537   4.102   4.138  1.00  0.00     0.071 C 
ENDBRANCH   8  11
ENDBRANCH   7   8
ENDBRANCH   1   7
BRANCH   4  13
ATOM     13  C   UNL     1       1.118   6.235  -1.364  1.00  0.00    -0.010 A 
ATOM     14  C   UNL     1       0.792   7.515  -1.839  1.00  0.00     0.010 A 
ATOM     15  C   UNL     1       2.289   5.587  -1.850  1.00  0.00    -0.009 A 
ATOM     16  C   UNL     1       1.597   8.160  -2.775  1.00  0.00     0.009 A 
ATOM     17  C   UNL     1       2.685   4.302  -1.429  1.00  0.00     0.010 A 
ATOM     18  C   UNL     1       3.108   6.250  -2.805  1.00  0.00    -0.002 A 
ATOM     19  C   UNL     1       2.751   7.540  -3.262  1.00  0.00    -0.017 A 
ATOM     20  C   UNL     1       3.840   3.691  -1.921  1.00  0.00     0.009 A 
ATOM     21  C   UNL     1       4.288   5.632  -3.312  1.00  0.00    -0.002 A 
ATOM     22  C   UNL     1       3.555   8.190  -4.199  1.00  0.00     0.009 A 
ATOM     23  C   UNL     1       4.646   4.342  -2.857  1.00  0.00    -0.017 A 
ATOM     24  C   UNL     1       5.106   6.295  -4.267  1.00  0.00    -0.009 A 
ATOM     25  C   UNL     1       4.709   7.579  -4.692  1.00  0.00     0.010 A 
ATOM     26  C   UNL     1       5.801   3.724  -3.346  1.00  0.00     0.009 A 
ATOM     27  C   UNL     1       6.277   5.650  -4.754  1.00  0.00    -0.010 A 
ATOM     28  C   UNL     1       6.604   4.369  -4.281  1.00  0.00     0.010 A 
BRANCH  27  29
ATOM     29  C   UNL     1       7.172   6.271  -5.744  1.00  0.00    -0.018 A 
ATOM     30  C   UNL     1       8.486   6.615  -5.404  1.00  0.00     0.012 A 
ATOM     31  C   UNL     1       6.725   6.538  -7.046  1.00  0.00     0.012 A 
ATOM     32  C   UNL     1       9.331   7.205  -6.347  1.00  0.00     0.047 A 
ATOM     33  C   UNL     1       7.574   7.130  -7.990  1.00  0.00     0.047 A 
ATOM     34  C   UNL     1       8.882   7.467  -7.643  1.00  0.00     0.118 A 
BRANCH  34  35
ATOM     35  O   UNL     1       9.809   8.045  -8.463  1.00  0.00    -0.497 OA
ATOM     36  C   UNL     1      11.154   8.067  -8.002  1.00  0.00     0.278 C 
ENDBRANCH  34  35
ENDBRANCH  27  29
ENDBRANCH   4  13
TORSDOF 6
REMARK SMILES CC[N+](C)(C)Cc1ccc(-c2ccc3ccc4c(-c5ccc(OC)cc5)ccc5ccc2c3c54)cc1
REMARK SMILES IDX 7 1 8 2 9 3 10 4 35 5 36 6 6 7 3 8 4 9 5 10 2 11 1 12 11 13
REMARK SMILES IDX 12 14 32 15 13 16 31 17 33 18 14 19 30 20 34 21 15 22 29 23
REMARK SMILES IDX 17 24 16 25 28 26 18 27 27 28 19 29 20 30 26 31 21 32 25 33
REMARK SMILES IDX 22 34 23 35 24 36
REMARK H PARENT
REMARK Flexibility Score: inf
ROOT
ATOM      1  C   UNL     1      10.456   3.097  -1.670  1.00  0.00     0.006 A 
ATOM      2  C   UNL     1       9.875   3.470  -0.448  1.00  0.00     0.010 A 
ATOM      3  C   UNL     1       8.976   4.538  -0.384  1.00  0.00     0.009 A 
ATOM      4  C   UNL     1       8.632   5.256  -1.536  1.00  0.00    -0.018 A 
ATOM      5  C   UNL     1       9.199   4.873  -2.758  1.00  0.00     0.009 A 
ATOM      6  C   UNL     1      10.097   3.804  -2.827  1.00  0.00     0.010 A 
ENDROOT
BRANCH   1   7
ATOM      7  C   UNL     1      11.427   1.944  -1.740  1.00  0.00     0.300 C 
BRANCH   7   8
ATOM      8  N   UNL     1      10.885   0.582  -2.267  1.00  0.00    -0.325 N 
ATOM      9  C   UNL     1      10.929   0.561  -3.790  1.00  0.00     0.334 C 
ATOM     10  C   UNL     1      11.734  -0.561  -1.725  1.00  0.00     0.334 C 
BRANCH   8  11
ATOM     11  C   UNL     1       9.431   0.475  -1.758  1.00  0.00     0.260 C 
ATOM     12  C   UNL     1       8.371   0.761  -2.809  1.00  0.00     0.071 C 
ENDBRANCH   8  11
ENDBRANCH   7   8
ENDBRANCH   1   7
BRANCH   4  13
ATOM     13  C   UNL     1       7.678   6.375  -1.469  1.00  0.00    -0.010 A 
ATOM     14  C   UNL     1       7.932   7.506  -2.261  1.00  0.00     0.010 A 
ATOM     15  C   UNL     1       6.520   6.349  -0.640  1.00  0.00    -0.009 A 
ATOM     16  C   UNL     1       7.070   8.598  -2.250  1.00  0.00     0.009 A 
ATOM     17  C   UNL     1       6.193   5.256   0.188  1.00  0.00     0.010 A 
ATOM     18  C   UNL     1       5.641   7.467  -0.634  1.00  0.00    -0.002 A 
ATOM     19  C   UNL     1       5.928   8.590  -1.445  1.00  0.00    -0.017 A 
ATOM     20  C   UNL     1       5.050   5.257   0.989  1.00  0.00     0.009 A 
ATOM     21  C   UNL     1       4.473   7.475   0.183  1.00  0.00    -0.002 A 
ATOM     22  C   UNL     1       5.065   9.687  -1.437  1.00  0.00     0.009 A 
ATOM     23  C   UNL     1       4.186   6.354   0.995  1.00  0.00    -0.017 A 
ATOM     24  C   UNL     1       3.596   8.594   0.189  1.00  0.00    -0.009 A 
ATOM     25  C   UNL     1       3.923   9.689  -0.636  1.00  0.00     0.010 A 
ATOM     26  C   UNL     1       3.043   6.348   1.800  1.00  0.00     0.009 A 
ATOM     27  C   UNL     1       2.438   8.570   1.016  1.00  0.00    -0.010 A 
ATOM     28  C   UNL     1       2.182   7.441   1.809  1.00  0.00     0.010 A 
BRANCH  27  29
ATOM     29  C   UNL     1       1.484   9.689   1.078  1.00  0.00    -0.018 A 
ATOM     30  C   UNL     1       0.600   9.936   0.020  1.00  0.00     0.012 A 
ATOM     31  C   UNL     1       1.446  10.537   2.195  1.00  0.00     0.012 A 
ATOM     32  C   UNL     1      -0.302  11.001   0.084  1.00  0.00     0.047 A 
ATOM     33  C   UNL     1       0.541  11.604   2.256  1.00  0.00     0.047 A 
ATOM     34  C   UNL     1      -0.338  11.840   1.199  1.00  0.00     0.118 A 
BRANCH  34  35
ATOM     35  O   UNL     1      -1.266  12.841   1.133  1.00  0.00    -0.497 OA
ATOM     36  C   UNL     1      -1.036  13.872   0.180  1.00  0.00     0.278 C 
ENDBRANCH  34  35
ENDBRANCH  27  29
ENDBRANCH   4  13
TORSDOF 6
ENDMDL
MODEL 10
REMARK VINA RESULT:   -14.984      3.390      8.102
REMARK INTER + INTRA:         -20.051
REMARK INTER:                 -18.563
REMARK INTRA:                  -1.488
REMARK CONF_INDEPENDENT:        3.580
REMARK UNBOUND:                -1.488
REMARK SMILES CC[N+](C)(C)Cc1ccc(-c2ccc3ccc4c(-c5ccc(OC)cc5)ccc5ccc2c3c54)cc1
REMARK SMILES IDX 7 1 8 2 9 3 10 4 35 5 36 6 6 7 3 8 4 9 5 10 2 11 1 12 11 13
REMARK SMILES IDX 12 14 32 15 13 16 31 17 33 18 14 19 30 20 34 21 15 22 29 23
REMARK SMILES IDX 17 24 16 25 28 26 18 27 27 28 19 29 20 30 26 31 21 32 25 33
REMARK SMILES IDX 22 34 23 35 24 36
REMARK H PARENT
REMARK Flexibility Score: inf
ROOT
ATOM      1  C   UNL     1       0.156   8.863   2.620  1.00  0.00     0.006 A 
ATOM      2  C   UNL     1      -0.297   7.921   1.685  1.00  0.00     0.010 A 
ATOM      3  C   UNL     1       0.382   7.733   0.477  1.00  0.00     0.009 A 
ATOM      4  C   UNL     1       1.531   8.476   0.177  1.00  0.00    -0.018 A 
ATOM      5  C   UNL     1       1.992   9.404   1.119  1.00  0.00     0.009 A 
ATOM      6  C   UNL     1       1.317   9.594   2.328  1.00  0.00     0.010 A 
ENDROOT
BRANCH   1   7
ATOM      7  C   UNL     1      -0.576   9.067   3.924  1.00  0.00     0.300 C 
BRANCH   7   8
ATOM      8  N   UNL     1      -1.698  10.147   3.955  1.00  0.00    -0.325 N 
ATOM      9  C   UNL     1      -2.909   9.659   3.170  1.00  0.00     0.334 C 
ATOM     10  C   UNL     1      -2.112  10.426   5.394  1.00  0.00     0.334 C 
BRANCH   8  11
ATOM     11  C   UNL     1      -1.093  11.409   3.303  1.00  0.00     0.260 C 
ATOM     12  C   UNL     1      -1.339  11.529   1.807  1.00  0.00     0.071 C 
ENDBRANCH   8  11
ENDBRANCH   7   8
ENDBRANCH   1   7
BRANCH   4  13
ATOM     13  C   UNL     1       2.250   8.271  -1.090  1.00  0.00    -0.010 A 
ATOM     14  C   UNL     1       1.492   8.002  -2.241  1.00  0.00     0.010 A 
ATOM     15  C   UNL     1       3.670   8.336  -1.189  1.00  0.00    -0.009 A 
ATOM     16  C   UNL     1       2.107   7.802  -3.474  1.00  0.00     0.009 A 
ATOM     17  C   UNL     1       4.504   8.595  -0.082  1.00  0.00     0.010 A 
ATOM     18  C   UNL     1       4.292   8.132  -2.451  1.00  0.00    -0.002 A 
ATOM     19  C   UNL     1       3.498   7.864  -3.590  1.00  0.00    -0.017 A 
ATOM     20  C   UNL     1       5.893   8.656  -0.207  1.00  0.00     0.009 A 
ATOM     21  C   UNL     1       5.709   8.191  -2.585  1.00  0.00    -0.002 A 
ATOM     22  C   UNL     1       4.110   7.664  -4.828  1.00  0.00     0.009 A 
ATOM     23  C   UNL     1       6.505   8.457  -1.447  1.00  0.00    -0.017 A 
ATOM     24  C   UNL     1       6.331   7.986  -3.848  1.00  0.00    -0.009 A 
ATOM     25  C   UNL     1       5.499   7.723  -4.953  1.00  0.00     0.010 A 
ATOM     26  C   UNL     1       7.896   8.519  -1.565  1.00  0.00     0.009 A 
ATOM     27  C   UNL     1       7.749   8.052  -3.948  1.00  0.00    -0.010 A 
ATOM     28  C   UNL     1       8.509   8.319  -2.798  1.00  0.00     0.010 A 
BRANCH  27  29
ATOM     29  C   UNL     1       8.465   7.849  -5.218  1.00  0.00    -0.018 A 
ATOM     30  C   UNL     1       9.562   8.650  -5.557  1.00  0.00     0.012 A 
ATOM     31  C   UNL     1       8.059   6.853  -6.119  1.00  0.00     0.012 A 
ATOM     32  C   UNL     1      10.237   8.454  -6.765  1.00  0.00     0.047 A 
ATOM     33  C   UNL     1       8.737   6.659  -7.329  1.00  0.00     0.047 A 
ATOM     34  C   UNL     1       9.830   7.460  -7.656  1.00  0.00     0.118 A 
BRANCH  34  35
ATOM     35  O   UNL     1      10.576   7.376  -8.798  1.00  0.00    -0.497 OA
ATOM     36  C   UNL     1      11.763   8.159  -8.852  1.00  0.00     0.278 C 
ENDBRANCH  34  35
ENDBRANCH  27  29
ENDBRANCH   4  13
TORSDOF 6
REMARK SMILES CC[N+](C)(C)Cc1ccc(-c2ccc3ccc4c(-c5ccc(OC)cc5)ccc5ccc2c3c54)cc1
REMARK SMILES IDX 7 1 8 2 9 3 10 4 35 5 36 6 6 7 3 8 4 9 5 10 2 11 1 12 11 13
REMARK SMILES IDX 12 14 32 15 13 16 31 17 33 18 14 19 30 20 34 21 15 22 29 23
REMARK SMILES IDX 17 24 16 25 28 26 18 27 27 28 19 29 20 30 26 31 21 32 25 33
REMARK SMILES IDX 22 34 23 35 24 36
REMARK H PARENT
REMARK Flexibility Score: inf
ROOT
ATOM      1  C   UNL     1       1.626   5.572   3.040  1.00  0.00     0.006 A 
ATOM      2  C   UNL     1       2.753   6.342   2.713  1.00  0.00     0.010 A 
ATOM      3  C   UNL     1       3.430   6.137   1.508  1.00  0.00     0.009 A 
ATOM      4  C   UNL     1       2.996   5.164   0.597  1.00  0.00    -0.018 A 
ATOM      5  C   UNL     1       1.861   4.408   0.917  1.00  0.00     0.009 A 
ATOM      6  C   UNL     1       1.180   4.611   2.120  1.00  0.00     0.010 A 
ENDROOT
BRANCH   1   7
ATOM      7  C   UNL     1       0.894   5.792   4.342  1.00  0.00     0.300 C 
BRANCH   7   8
ATOM      8  N   UNL     1      -0.459   5.048   4.538  1.00  0.00    -0.325 N 
ATOM      9  C   UNL     1      -1.118   5.504   5.833  1.00  0.00     0.334 C 
ATOM     10  C   UNL     1      -1.391   5.345   3.370  1.00  0.00     0.334 C 
BRANCH   8  11
ATOM     11  C   UNL     1      -0.114   3.543   4.596  1.00  0.00     0.260 C 
ATOM     12  C   UNL     1      -1.020   2.655   3.759  1.00  0.00     0.071 C 
ENDBRANCH   8  11
ENDBRANCH   7   8
ENDBRANCH   1   7
BRANCH   4  13
ATOM     13  C   UNL     1       3.704   4.956  -0.676  1.00  0.00    -0.010 A 
ATOM     14  C   UNL     1       2.934   4.711  -1.824  1.00  0.00     0.010 A 
ATOM     15  C   UNL     1       5.123   4.997  -0.782  1.00  0.00    -0.009 A 
ATOM     16  C   UNL     1       3.538   4.510  -3.063  1.00  0.00     0.009 A 
ATOM     17  C   UNL     1       5.969   5.232   0.321  1.00  0.00     0.010 A 
ATOM     18  C   UNL     1       5.735   4.792  -2.050  1.00  0.00    -0.002 A 
ATOM     19  C   UNL     1       4.929   4.548  -3.186  1.00  0.00    -0.017 A 
ATOM     20  C   UNL     1       7.358   5.269   0.188  1.00  0.00     0.009 A 
ATOM     21  C   UNL     1       7.152   4.827  -2.192  1.00  0.00    -0.002 A 
ATOM     22  C   UNL     1       5.530   4.347  -4.430  1.00  0.00     0.009 A 
ATOM     23  C   UNL     1       7.959   5.069  -1.057  1.00  0.00    -0.017 A 
ATOM     24  C   UNL     1       7.762   4.621  -3.460  1.00  0.00    -0.009 A 
ATOM     25  C   UNL     1       6.919   4.382  -4.563  1.00  0.00     0.010 A 
ATOM     26  C   UNL     1       9.351   5.107  -1.183  1.00  0.00     0.009 A 
ATOM     27  C   UNL     1       9.181   4.662  -3.568  1.00  0.00    -0.010 A 
ATOM     28  C   UNL     1       9.952   4.906  -2.421  1.00  0.00     0.010 A 
BRANCH  27  29
ATOM     29  C   UNL     1       9.885   4.457  -4.844  1.00  0.00    -0.018 A 
ATOM     30  C   UNL     1       9.451   3.483  -5.753  1.00  0.00     0.012 A 
ATOM     31  C   UNL     1      11.010   5.226  -5.175  1.00  0.00     0.012 A 
ATOM     32  C   UNL     1      10.124   3.291  -6.962  1.00  0.00     0.047 A 
ATOM     33  C   UNL     1      11.684   5.032  -6.387  1.00  0.00     0.047 A 
ATOM     34  C   UNL     1      11.242   4.062  -7.286  1.00  0.00     0.118 A 
BRANCH  34  35
ATOM     35  O   UNL     1      11.804   3.772  -8.498  1.00  0.00    -0.497 OA
ATOM     36  C   UNL     1      11.765   2.414  -8.918  1.00  0.00     0.278 C 
ENDBRANCH  34  35
ENDBRANCH  27  29
ENDBRANCH   4  13
TORSDOF 6
ENDMDL
MODEL 11
REMARK VINA RESULT:   -14.958      2.914      5.436
REMARK INTER + INTRA:         -20.680
REMARK INTER:                 -18.537
REMARK INTRA:                  -2.143
REMARK CONF_INDEPENDENT:        3.580
REMARK UNBOUND:                -2.143
REMARK SMILES CC[N+](C)(C)Cc1ccc(-c2ccc3ccc4c(-c5ccc(OC)cc5)ccc5ccc2c3c54)cc1
REMARK SMILES IDX 7 1 8 2 9 3 10 4 35 5 36 6 6 7 3 8 4 9 5 10 2 11 1 12 11 13
REMARK SMILES IDX 12 14 32 15 13 16 31 17 33 18 14 19 30 20 34 21 15 22 29 23
REMARK SMILES IDX 17 24 16 25 28 26 18 27 27 28 19 29 20 30 26 31 21 32 25 33
REMARK SMILES IDX 22 34 23 35 24 36
REMARK H PARENT
REMARK Flexibility Score: inf
ROOT
ATOM      1  C   UNL     1      -0.914   9.937  -0.929  1.00  0.00     0.006 A 
ATOM      2  C   UNL     1       0.458  10.222  -0.860  1.00  0.00     0.010 A 
ATOM      3  C   UNL     1       1.399   9.311  -1.347  1.00  0.00     0.009 A 
ATOM      4  C   UNL     1       0.995   8.097  -1.918  1.00  0.00    -0.018 A 
ATOM      5  C   UNL     1      -0.375   7.821  -2.001  1.00  0.00     0.009 A 
ATOM      6  C   UNL     1      -1.320   8.730  -1.517  1.00  0.00     0.010 A 
ENDROOT
BRANCH   1   7
ATOM      7  C   UNL     1      -1.932  10.920  -0.403  1.00  0.00     0.300 C 
BRANCH   7   8
ATOM      8  N   UNL     1      -1.622  11.614   0.956  1.00  0.00    -0.325 N 
ATOM      9  C   UNL     1      -0.609  12.732   0.747  1.00  0.00     0.334 C 
ATOM     10  C   UNL     1      -2.899  12.198   1.545  1.00  0.00     0.334 C 
BRANCH   8  11
ATOM     11  C   UNL     1      -1.046  10.514   1.876  1.00  0.00     0.260 C 
ATOM     12  C   UNL     1       0.135  10.956   2.724  1.00  0.00     0.071 C 
ENDBRANCH   8  11
ENDBRANCH   7   8
ENDBRANCH   1   7
BRANCH   4  13
ATOM     13  C   UNL     1       1.987   7.144  -2.439  1.00  0.00    -0.010 A 
ATOM     14  C   UNL     1       1.716   5.772  -2.304  1.00  0.00     0.010 A 
ATOM     15  C   UNL     1       3.196   7.558  -3.069  1.00  0.00    -0.009 A 
ATOM     16  C   UNL     1       2.608   4.815  -2.779  1.00  0.00     0.009 A 
ATOM     17  C   UNL     1       3.546   8.912  -3.240  1.00  0.00     0.010 A 
ATOM     18  C   UNL     1       4.103   6.575  -3.552  1.00  0.00    -0.002 A 
ATOM     19  C   UNL     1       3.798   5.202  -3.401  1.00  0.00    -0.017 A 
ATOM     20  C   UNL     1       4.737   9.290  -3.862  1.00  0.00     0.009 A 
ATOM     21  C   UNL     1       5.321   6.954  -4.188  1.00  0.00    -0.002 A 
ATOM     22  C   UNL     1       4.690   4.239  -3.875  1.00  0.00     0.009 A 
ATOM     23  C   UNL     1       5.628   8.326  -4.339  1.00  0.00    -0.017 A 
ATOM     24  C   UNL     1       6.228   5.971  -4.670  1.00  0.00    -0.009 A 
ATOM     25  C   UNL     1       5.881   4.617  -4.497  1.00  0.00     0.010 A 
ATOM     26  C   UNL     1       6.819   8.712  -4.962  1.00  0.00     0.009 A 
ATOM     27  C   UNL     1       7.436   6.383  -5.301  1.00  0.00    -0.010 A 
ATOM     28  C   UNL     1       7.709   7.753  -5.435  1.00  0.00     0.010 A 
BRANCH  27  29
ATOM     29  C   UNL     1       8.424   5.426  -5.823  1.00  0.00    -0.018 A 
ATOM     30  C   UNL     1       8.096   4.559  -6.873  1.00  0.00     0.012 A 
ATOM     31  C   UNL     1       9.714   5.356  -5.276  1.00  0.00     0.012 A 
ATOM     32  C   UNL     1       9.037   3.651  -7.364  1.00  0.00     0.047 A 
ATOM     33  C   UNL     1      10.656   4.446  -5.770  1.00  0.00     0.047 A 
ATOM     34  C   UNL     1      10.320   3.588  -6.817  1.00  0.00     0.118 A 
BRANCH  34  35
ATOM     35  O   UNL     1      11.141   2.658  -7.391  1.00  0.00    -0.497 OA
ATOM     36  C   UNL     1      10.676   1.314  -7.412  1.00  0.00     0.278 C 
ENDBRANCH  34  35
ENDBRANCH  27  29
ENDBRANCH   4  13
TORSDOF 6
REMARK SMILES CC[N+](C)(C)Cc1ccc(-c2ccc3ccc4c(-c5ccc(OC)cc5)ccc5ccc2c3c54)cc1
REMARK SMILES IDX 7 1 8 2 9 3 10 4 35 5 36 6 6 7 3 8 4 9 5 10 2 11 1 12 11 13
REMARK SMILES IDX 12 14 32 15 13 16 31 17 33 18 14 19 30 20 34 21 15 22 29 23
REMARK SMILES IDX 17 24 16 25 28 26 18 27 27 28 19 29 20 30 26 31 21 32 25 33
REMARK SMILES IDX 22 34 23 35 24 36
REMARK H PARENT
REMARK Flexibility Score: inf
ROOT
ATOM      1  C   UNL     1       9.477  10.817  -2.048  1.00  0.00     0.006 A 
ATOM      2  C   UNL     1      10.006   9.663  -1.448  1.00  0.00     0.010 A 
ATOM      3  C   UNL     1       9.178   8.582  -1.132  1.00  0.00     0.009 A 
ATOM      4  C   UNL     1       7.806   8.624  -1.411  1.00  0.00    -0.018 A 
ATOM      5  C   UNL     1       7.282   9.769  -2.025  1.00  0.00     0.009 A 
ATOM      6  C   UNL     1       8.107  10.851  -2.344  1.00  0.00     0.010 A 
ENDROOT
BRANCH   1   7
ATOM      7  C   UNL     1      10.371  11.984  -2.389  1.00  0.00     0.300 C 
BRANCH   7   8
ATOM      8  N   UNL     1      10.656  12.252  -3.896  1.00  0.00    -0.325 N 
ATOM      9  C   UNL     1      11.804  13.243  -4.039  1.00  0.00     0.334 C 
ATOM     10  C   UNL     1      11.028  10.950  -4.594  1.00  0.00     0.334 C 
BRANCH   8  11
ATOM     11  C   UNL     1       9.351  12.835  -4.481  1.00  0.00     0.260 C 
ATOM     12  C   UNL     1       8.555  11.865  -5.340  1.00  0.00     0.071 C 
ENDBRANCH   8  11
ENDBRANCH   7   8
ENDBRANCH   1   7
BRANCH   4  13
ATOM     13  C   UNL     1       6.937   7.481  -1.087  1.00  0.00    -0.010 A 
ATOM     14  C   UNL     1       7.391   6.195  -1.418  1.00  0.00     0.010 A 
ATOM     15  C   UNL     1       5.670   7.634  -0.455  1.00  0.00    -0.009 A 
ATOM     16  C   UNL     1       6.622   5.068  -1.136  1.00  0.00     0.009 A 
ATOM     17  C   UNL     1       5.138   8.889  -0.094  1.00  0.00     0.010 A 
ATOM     18  C   UNL     1       4.889   6.480  -0.168  1.00  0.00    -0.002 A 
ATOM     19  C   UNL     1       5.378   5.198  -0.515  1.00  0.00    -0.017 A 
ATOM     20  C   UNL     1       3.894   9.009   0.526  1.00  0.00     0.009 A 
ATOM     21  C   UNL     1       3.617   6.596   0.464  1.00  0.00    -0.002 A 
ATOM     22  C   UNL     1       4.611   4.067  -0.233  1.00  0.00     0.009 A 
ATOM     23  C   UNL     1       3.128   7.876   0.810  1.00  0.00    -0.017 A 
ATOM     24  C   UNL     1       2.838   5.441   0.749  1.00  0.00    -0.009 A 
ATOM     25  C   UNL     1       3.366   4.187   0.386  1.00  0.00     0.010 A 
ATOM     26  C   UNL     1       1.882   8.004   1.431  1.00  0.00     0.009 A 
ATOM     27  C   UNL     1       1.572   5.591   1.381  1.00  0.00    -0.010 A 
ATOM     28  C   UNL     1       1.116   6.877   1.712  1.00  0.00     0.010 A 
BRANCH  27  29
ATOM     29  C   UNL     1       0.707   4.446   1.707  1.00  0.00    -0.018 A 
ATOM     30  C   UNL     1       0.929   3.687   2.863  1.00  0.00     0.012 A 
ATOM     31  C   UNL     1      -0.354   4.085   0.863  1.00  0.00     0.012 A 
ATOM     32  C   UNL     1       0.106   2.600   3.167  1.00  0.00     0.047 A 
ATOM     33  C   UNL     1      -1.177   2.994   1.169  1.00  0.00     0.047 A 
ATOM     34  C   UNL     1      -0.949   2.247   2.324  1.00  0.00     0.118 A 
BRANCH  34  35
ATOM     35  O   UNL     1      -1.675   1.165   2.739  1.00  0.00    -0.497 OA
ATOM     36  C   UNL     1      -0.998  -0.085   2.786  1.00  0.00     0.278 C 
ENDBRANCH  34  35
ENDBRANCH  27  29
ENDBRANCH   4  13
TORSDOF 6
ENDMDL
MODEL 12
REMARK VINA RESULT:   -14.919      2.661     11.004
REMARK INTER + INTRA:         -20.761
REMARK INTER:                 -18.499
REMARK INTRA:                  -2.262
REMARK CONF_INDEPENDENT:        3.580
REMARK UNBOUND:                -2.262
REMARK SMILES CC[N+](C)(C)Cc1ccc(-c2ccc3ccc4c(-c5ccc(OC)cc5)ccc5ccc2c3c54)cc1
REMARK SMILES IDX 7 1 8 2 9 3 10 4 35 5 36 6 6 7 3 8 4 9 5 10 2 11 1 12 11 13
REMARK SMILES IDX 12 14 32 15 13 16 31 17 33 18 14 19 30 20 34 21 15 22 29 23
REMARK SMILES IDX 17 24 16 25 28 26 18 27 27 28 19 29 20 30 26 31 21 32 25 33
REMARK SMILES IDX 22 34 23 35 24 36
REMARK H PARENT
REMARK Flexibility Score: inf
ROOT
ATOM      1  C   UNL     1      10.658   8.571  -6.020  1.00  0.00     0.006 A 
ATOM      2  C   UNL     1       9.819   7.463  -6.215  1.00  0.00     0.010 A 
ATOM      3  C   UNL     1       9.066   6.945  -5.157  1.00  0.00     0.009 A 
ATOM      4  C   UNL     1       9.127   7.523  -3.882  1.00  0.00    -0.018 A 
ATOM      5  C   UNL     1       9.952   8.639  -3.693  1.00  0.00     0.009 A 
ATOM      6  C   UNL     1      10.705   9.161  -4.748  1.00  0.00     0.010 A 
ENDROOT
BRANCH   1   7
ATOM      7  C   UNL     1      11.472   9.130  -7.161  1.00  0.00     0.300 C 
BRANCH   7   8
ATOM      8  N   UNL     1      10.719   9.973  -8.232  1.00  0.00    -0.325 N 
ATOM      9  C   UNL     1      11.721  10.714  -9.107  1.00  0.00     0.334 C 
ATOM     10  C   UNL     1       9.867   9.063  -9.107  1.00  0.00     0.334 C 
BRANCH   8  11
ATOM     11  C   UNL     1       9.833  10.967  -7.448  1.00  0.00     0.260 C 
ATOM     12  C   UNL     1       8.386  10.531  -7.286  1.00  0.00     0.071 C 
ENDBRANCH   8  11
ENDBRANCH   7   8
ENDBRANCH   1   7
BRANCH   4  13
ATOM     13  C   UNL     1       8.327   6.983  -2.772  1.00  0.00    -0.010 A 
ATOM     14  C   UNL     1       8.687   5.731  -2.249  1.00  0.00     0.010 A 
ATOM     15  C   UNL     1       7.215   7.678  -2.216  1.00  0.00    -0.009 A 
ATOM     16  C   UNL     1       7.977   5.162  -1.195  1.00  0.00     0.009 A 
ATOM     17  C   UNL     1       6.784   8.935  -2.686  1.00  0.00     0.010 A 
ATOM     18  C   UNL     1       6.493   7.093  -1.140  1.00  0.00    -0.002 A 
ATOM     19  C   UNL     1       6.884   5.830  -0.636  1.00  0.00    -0.017 A 
ATOM     20  C   UNL     1       5.691   9.595  -2.121  1.00  0.00     0.009 A 
ATOM     21  C   UNL     1       5.376   7.761  -0.560  1.00  0.00    -0.002 A 
ATOM     22  C   UNL     1       6.175   5.257   0.420  1.00  0.00     0.009 A 
ATOM     23  C   UNL     1       4.983   9.022  -1.062  1.00  0.00    -0.017 A 
ATOM     24  C   UNL     1       4.655   7.175   0.516  1.00  0.00    -0.009 A 
ATOM     25  C   UNL     1       5.082   5.916   0.984  1.00  0.00     0.010 A 
ATOM     26  C   UNL     1       3.890   9.690  -0.502  1.00  0.00     0.009 A 
ATOM     27  C   UNL     1       3.544   7.868   1.074  1.00  0.00    -0.010 A 
ATOM     28  C   UNL     1       3.181   9.120   0.551  1.00  0.00     0.010 A 
BRANCH  27  29
ATOM     29  C   UNL     1       2.747   7.326   2.186  1.00  0.00    -0.018 A 
ATOM     30  C   UNL     1       2.231   8.173   3.176  1.00  0.00     0.012 A 
ATOM     31  C   UNL     1       2.494   5.950   2.284  1.00  0.00     0.012 A 
ATOM     32  C   UNL     1       1.477   7.653   4.230  1.00  0.00     0.047 A 
ATOM     33  C   UNL     1       1.738   5.431   3.342  1.00  0.00     0.047 A 
ATOM     34  C   UNL     1       1.226   6.282   4.321  1.00  0.00     0.118 A 
BRANCH  34  35
ATOM     35  O   UNL     1       0.475   5.908   5.400  1.00  0.00    -0.497 OA
ATOM     36  C   UNL     1      -0.699   5.150   5.137  1.00  0.00     0.278 C 
ENDBRANCH  34  35
ENDBRANCH  27  29
ENDBRANCH   4  13
TORSDOF 6
REMARK SMILES CC[N+](C)(C)Cc1ccc(-c2ccc3ccc4c(-c5ccc(OC)cc5)ccc5ccc2c3c54)cc1
REMARK SMILES IDX 7 1 8 2 9 3 10 4 35 5 36 6 6 7 3 8 4 9 5 10 2 11 1 12 11 13
REMARK SMILES IDX 12 14 32 15 13 16 31 17 33 18 14 19 30 20 34 21 15 22 29 23
REMARK SMILES IDX 17 24 16 25 28 26 18 27 27 28 19 29 20 30 26 31 21 32 25 33
REMARK SMILES IDX 22 34 23 35 24 36
REMARK H PARENT
REMARK Flexibility Score: inf
ROOT
ATOM      1  C   UNL     1      -1.714  10.220  -0.599  1.00  0.00     0.006 A 
ATOM      2  C   UNL     1      -1.696   9.508  -1.808  1.00  0.00     0.010 A 
ATOM      3  C   UNL     1      -0.791   8.461  -2.004  1.00  0.00     0.009 A 
ATOM      4  C   UNL     1       0.114   8.097  -0.999  1.00  0.00    -0.018 A 
ATOM      5  C   UNL     1       0.085   8.797   0.214  1.00  0.00     0.009 A 
ATOM      6  C   UNL     1      -0.820   9.843   0.415  1.00  0.00     0.010 A 
ENDROOT
BRANCH   1   7
ATOM      7  C   UNL     1      -2.690  11.351  -0.387  1.00  0.00     0.300 C 
BRANCH   7   8
ATOM      8  N   UNL     1      -2.111  12.795  -0.318  1.00  0.00    -0.325 N 
ATOM      9  C   UNL     1      -0.909  12.915  -1.246  1.00  0.00     0.334 C 
ATOM     10  C   UNL     1      -3.173  13.802  -0.741  1.00  0.00     0.334 C 
BRANCH   8  11
ATOM     11  C   UNL     1      -1.696  13.019   1.152  1.00  0.00     0.260 C 
ATOM     12  C   UNL     1      -0.194  13.031   1.390  1.00  0.00     0.071 C 
ENDBRANCH   8  11
ENDBRANCH   7   8
ENDBRANCH   1   7
BRANCH   4  13
ATOM     13  C   UNL     1       1.060   6.988  -1.203  1.00  0.00    -0.010 A 
ATOM     14  C   UNL     1       0.924   5.849  -0.394  1.00  0.00     0.010 A 
ATOM     15  C   UNL     1       2.093   7.029  -2.182  1.00  0.00    -0.009 A 
ATOM     16  C   UNL     1       1.781   4.761  -0.536  1.00  0.00     0.009 A 
ATOM     17  C   UNL     1       2.302   8.135  -3.031  1.00  0.00     0.010 A 
ATOM     18  C   UNL     1       2.966   5.915  -2.324  1.00  0.00    -0.002 A 
ATOM     19  C   UNL     1       2.799   4.783  -1.492  1.00  0.00    -0.017 A 
ATOM     20  C   UNL     1       3.322   8.148  -3.983  1.00  0.00     0.009 A 
ATOM     21  C   UNL     1       4.010   5.923  -3.293  1.00  0.00    -0.002 A 
ATOM     22  C   UNL     1       3.657   3.691  -1.632  1.00  0.00     0.009 A 
ATOM     23  C   UNL     1       4.178   7.054  -4.124  1.00  0.00    -0.017 A 
ATOM     24  C   UNL     1       4.882   4.808  -3.434  1.00  0.00    -0.009 A 
ATOM     25  C   UNL     1       4.677   3.704  -2.584  1.00  0.00     0.010 A 
ATOM     26  C   UNL     1       5.198   7.074  -5.081  1.00  0.00     0.009 A 
ATOM     27  C   UNL     1       5.915   4.848  -4.412  1.00  0.00    -0.010 A 
ATOM     28  C   UNL     1       6.053   5.986  -5.221  1.00  0.00     0.010 A 
BRANCH  27  29
ATOM     29  C   UNL     1       6.857   3.736  -4.616  1.00  0.00    -0.018 A 
ATOM     30  C   UNL     1       7.266   3.371  -5.905  1.00  0.00     0.012 A 
ATOM     31  C   UNL     1       7.361   3.013  -3.524  1.00  0.00     0.012 A 
ATOM     32  C   UNL     1       8.159   2.313  -6.092  1.00  0.00     0.047 A 
ATOM     33  C   UNL     1       8.256   1.953  -3.715  1.00  0.00     0.047 A 
ATOM     34  C   UNL     1       8.659   1.599  -5.002  1.00  0.00     0.118 A 
BRANCH  34  35
ATOM     35  O   UNL     1       9.524   0.591  -5.326  1.00  0.00    -0.497 OA
ATOM     36  C   UNL     1       8.987  -0.724  -5.387  1.00  0.00     0.278 C 
ENDBRANCH  34  35
ENDBRANCH  27  29
ENDBRANCH   4  13
TORSDOF 6
ENDMDL
MODEL 13
REMARK VINA RESULT:   -14.657      2.862     10.561
REMARK INTER + INTRA:         -20.190
REMARK INTER:                 -18.236
REMARK INTRA:                  -1.953
REMARK CONF_INDEPENDENT:        3.580
REMARK UNBOUND:                -1.953
REMARK SMILES CC[N+](C)(C)Cc1ccc(-c2ccc3ccc4c(-c5ccc(OC)cc5)ccc5ccc2c3c54)cc1
REMARK SMILES IDX 7 1 8 2 9 3 10 4 35 5 36 6 6 7 3 8 4 9 5 10 2 11 1 12 11 13
REMARK SMILES IDX 12 14 32 15 13 16 31 17 33 18 14 19 30 20 34 21 15 22 29 23
REMARK SMILES IDX 17 24 16 25 28 26 18 27 27 28 19 29 20 30 26 31 21 32 25 33
REMARK SMILES IDX 22 34 23 35 24 36
REMARK H PARENT
REMARK Flexibility Score: inf
ROOT
ATOM      1  C   UNL     1       6.965   8.767  -7.848  1.00  0.00     0.006 A 
ATOM      2  C   UNL     1       7.737   7.934  -7.024  1.00  0.00     0.010 A 
ATOM      3  C   UNL     1       7.130   7.134  -6.052  1.00  0.00     0.009 A 
ATOM      4  C   UNL     1       5.739   7.142  -5.882  1.00  0.00    -0.018 A 
ATOM      5  C   UNL     1       4.968   7.961  -6.716  1.00  0.00     0.009 A 
ATOM      6  C   UNL     1       5.571   8.761  -7.691  1.00  0.00     0.010 A 
ENDROOT
BRANCH   1   7
ATOM      7  C   UNL     1       7.620   9.631  -8.898  1.00  0.00     0.300 C 
BRANCH   7   8
ATOM      8  N   UNL     1       7.884  11.122  -8.536  1.00  0.00    -0.325 N 
ATOM      9  C   UNL     1       9.236  11.557  -9.087  1.00  0.00     0.334 C 
ATOM     10  C   UNL     1       6.793  12.003  -9.131  1.00  0.00     0.334 C 
BRANCH   8  11
ATOM     11  C   UNL     1       7.869  11.196  -6.993  1.00  0.00     0.260 C 
ATOM     12  C   UNL     1       7.509  12.562  -6.430  1.00  0.00     0.071 C 
ENDBRANCH   8  11
ENDBRANCH   7   8
ENDBRANCH   1   7
BRANCH   4  13
ATOM     13  C   UNL     1       5.101   6.292  -4.864  1.00  0.00    -0.010 A 
ATOM     14  C   UNL     1       5.516   4.954  -4.769  1.00  0.00     0.010 A 
ATOM     15  C   UNL     1       4.091   6.774  -3.983  1.00  0.00    -0.009 A 
ATOM     16  C   UNL     1       4.958   4.095  -3.826  1.00  0.00     0.009 A 
ATOM     17  C   UNL     1       3.615   8.100  -4.015  1.00  0.00     0.010 A 
ATOM     18  C   UNL     1       3.525   5.893  -3.021  1.00  0.00    -0.002 A 
ATOM     19  C   UNL     1       3.968   4.551  -2.952  1.00  0.00    -0.017 A 
ATOM     20  C   UNL     1       2.625   8.547  -3.138  1.00  0.00     0.009 A 
ATOM     21  C   UNL     1       2.514   6.342  -2.123  1.00  0.00    -0.002 A 
ATOM     22  C   UNL     1       3.411   3.687  -2.008  1.00  0.00     0.009 A 
ATOM     23  C   UNL     1       2.070   7.682  -2.191  1.00  0.00    -0.017 A 
ATOM     24  C   UNL     1       1.948   5.460  -1.162  1.00  0.00    -0.009 A 
ATOM     25  C   UNL     1       2.421   4.133  -1.131  1.00  0.00     0.010 A 
ATOM     26  C   UNL     1       1.079   8.137  -1.316  1.00  0.00     0.009 A 
ATOM     27  C   UNL     1       0.940   5.940  -0.280  1.00  0.00    -0.010 A 
ATOM     28  C   UNL     1       0.523   7.277  -0.374  1.00  0.00     0.010 A 
BRANCH  27  29
ATOM     29  C   UNL     1       0.306   5.088   0.739  1.00  0.00    -0.018 A 
ATOM     30  C   UNL     1      -0.755   4.239   0.401  1.00  0.00     0.012 A 
ATOM     31  C   UNL     1       0.745   5.113   2.070  1.00  0.00     0.012 A 
ATOM     32  C   UNL     1      -1.355   3.433   1.373  1.00  0.00     0.047 A 
ATOM     33  C   UNL     1       0.143   4.305   3.042  1.00  0.00     0.047 A 
ATOM     34  C   UNL     1      -0.911   3.460   2.696  1.00  0.00     0.118 A 
BRANCH  34  35
ATOM     35  O   UNL     1      -1.584   2.624   3.542  1.00  0.00    -0.497 OA
ATOM     36  C   UNL     1      -2.039   1.390   3.001  1.00  0.00     0.278 C 
ENDBRANCH  34  35
ENDBRANCH  27  29
ENDBRANCH   4  13
TORSDOF 6
REMARK SMILES CC[N+](C)(C)Cc1ccc(-c2ccc3ccc4c(-c5ccc(OC)cc5)ccc5ccc2c3c54)cc1
REMARK SMILES IDX 7 1 8 2 9 3 10 4 35 5 36 6 6 7 3 8 4 9 5 10 2 11 1 12 11 13
REMARK SMILES IDX 12 14 32 15 13 16 31 17 33 18 14 19 30 20 34 21 15 22 29 23
REMARK SMILES IDX 17 24 16 25 28 26 18 27 27 28 19 29 20 30 26 31 21 32 25 33
REMARK SMILES IDX 22 34 23 35 24 36
REMARK H PARENT
REMARK Flexibility Score: inf
ROOT
ATOM      1  C   UNL     1       0.844   8.569   3.715  1.00  0.00     0.006 A 
ATOM      2  C   UNL     1       1.824   7.565   3.676  1.00  0.00     0.010 A 
ATOM      3  C   UNL     1       2.769   7.532   2.646  1.00  0.00     0.009 A 
ATOM      4  C   UNL     1       2.762   8.502   1.635  1.00  0.00    -0.018 A 
ATOM      5  C   UNL     1       1.794   9.513   1.684  1.00  0.00     0.009 A 
ATOM      6  C   UNL     1       0.849   9.550   2.712  1.00  0.00     0.010 A 
ENDROOT
BRANCH   1   7
ATOM      7  C   UNL     1      -0.177   8.605   4.825  1.00  0.00     0.300 C 
BRANCH   7   8
ATOM      8  N   UNL     1      -1.511   7.834   4.598  1.00  0.00    -0.325 N 
ATOM      9  C   UNL     1      -1.559   6.605   5.498  1.00  0.00     0.334 C 
ATOM     10  C   UNL     1      -2.695   8.737   4.919  1.00  0.00     0.334 C 
BRANCH   8  11
ATOM     11  C   UNL     1      -1.520   7.426   3.109  1.00  0.00     0.260 C 
ATOM     12  C   UNL     1      -2.582   6.402   2.740  1.00  0.00     0.071 C 
ENDBRANCH   8  11
ENDBRANCH   7   8
ENDBRANCH   1   7
BRANCH   4  13
ATOM     13  C   UNL     1       3.764   8.472   0.557  1.00  0.00    -0.010 A 
ATOM     14  C   UNL     1       3.967   9.645  -0.186  1.00  0.00     0.010 A 
ATOM     15  C   UNL     1       4.525   7.309   0.247  1.00  0.00    -0.009 A 
ATOM     16  C   UNL     1       4.901   9.689  -1.217  1.00  0.00     0.009 A 
ATOM     17  C   UNL     1       4.380   6.090   0.940  1.00  0.00     0.010 A 
ATOM     18  C   UNL     1       5.479   7.359  -0.806  1.00  0.00    -0.002 A 
ATOM     19  C   UNL     1       5.659   8.559  -1.533  1.00  0.00    -0.017 A 
ATOM     20  C   UNL     1       5.141   4.965   0.617  1.00  0.00     0.009 A 
ATOM     21  C   UNL     1       6.259   6.215  -1.142  1.00  0.00    -0.002 A 
ATOM     22  C   UNL     1       6.595   8.607  -2.567  1.00  0.00     0.009 A 
ATOM     23  C   UNL     1       6.080   5.015  -0.417  1.00  0.00    -0.017 A 
ATOM     24  C   UNL     1       7.212   6.267  -2.196  1.00  0.00    -0.009 A 
ATOM     25  C   UNL     1       7.356   7.483  -2.892  1.00  0.00     0.010 A 
ATOM     26  C   UNL     1       6.839   3.885  -0.735  1.00  0.00     0.009 A 
ATOM     27  C   UNL     1       7.975   5.106  -2.506  1.00  0.00    -0.010 A 
ATOM     28  C   UNL     1       7.773   3.931  -1.765  1.00  0.00     0.010 A 
BRANCH  27  29
ATOM     29  C   UNL     1       8.978   5.080  -3.583  1.00  0.00    -0.018 A 
ATOM     30  C   UNL     1       8.950   4.081  -4.564  1.00  0.00     0.012 A 
ATOM     31  C   UNL     1       9.988   6.052  -3.646  1.00  0.00     0.012 A 
ATOM     32  C   UNL     1       9.905   4.060  -5.583  1.00  0.00     0.047 A 
ATOM     33  C   UNL     1      10.944   6.029  -4.669  1.00  0.00     0.047 A 
ATOM     34  C   UNL     1      10.906   5.031  -5.642  1.00  0.00     0.118 A 
BRANCH  34  35
ATOM     35  O   UNL     1      11.774   4.894  -6.689  1.00  0.00    -0.497 OA
ATOM     36  C   UNL     1      11.738   5.902  -7.692  1.00  0.00     0.278 C 
ENDBRANCH  34  35
ENDBRANCH  27  29
ENDBRANCH   4  13
TORSDOF 6
ENDMDL
MODEL 14
REMARK VINA RESULT:   -14.637      3.317      7.392
REMARK INTER + INTRA:         -20.655
REMARK INTER:                 -18.216
REMARK INTRA:                  -2.439
REMARK CONF_INDEPENDENT:        3.580
REMARK UNBOUND:                -2.439
REMARK SMILES CC[N+](C)(C)Cc1ccc(-c2ccc3ccc4c(-c5ccc(OC)cc5)ccc5ccc2c3c54)cc1
REMARK SMILES IDX 7 1 8 2 9 3 10 4 35 5 36 6 6 7 3 8 4 9 5 10 2 11 1 12 11 13
REMARK SMILES IDX 12 14 32 15 13 16 31 17 33 18 14 19 30 20 34 21 15 22 29 23
REMARK SMILES IDX 17 24 16 25 28 26 18 27 27 28 19 29 20 30 26 31 21 32 25 33
REMARK SMILES IDX 22 34 23 35 24 36
REMARK H PARENT
REMARK Flexibility Score: inf
ROOT
ATOM      1  C   UNL     1       6.791   9.627  -7.299  1.00  0.00     0.006 A 
ATOM      2  C   UNL     1       6.581   9.941  -5.947  1.00  0.00     0.010 A 
ATOM      3  C   UNL     1       6.053   8.989  -5.070  1.00  0.00     0.009 A 
ATOM      4  C   UNL     1       5.727   7.703  -5.518  1.00  0.00    -0.018 A 
ATOM      5  C   UNL     1       5.952   7.386  -6.863  1.00  0.00     0.009 A 
ATOM      6  C   UNL     1       6.482   8.333  -7.743  1.00  0.00     0.010 A 
ENDROOT
BRANCH   1   7
ATOM      7  C   UNL     1       7.362  10.654  -8.247  1.00  0.00     0.300 C 
BRANCH   7   8
ATOM      8  N   UNL     1       8.581  11.487  -7.751  1.00  0.00    -0.325 N 
ATOM      9  C   UNL     1       9.529  10.596  -6.958  1.00  0.00     0.334 C 
ATOM     10  C   UNL     1       9.326  12.076  -8.942  1.00  0.00     0.334 C 
BRANCH   8  11
ATOM     11  C   UNL     1       8.000  12.605  -6.859  1.00  0.00     0.260 C 
ATOM     12  C   UNL     1       8.458  12.559  -5.410  1.00  0.00     0.071 C 
ENDBRANCH   8  11
ENDBRANCH   7   8
ENDBRANCH   1   7
BRANCH   4  13
ATOM     13  C   UNL     1       5.179   6.699  -4.591  1.00  0.00    -0.010 A 
ATOM     14  C   UNL     1       5.860   5.478  -4.466  1.00  0.00     0.010 A 
ATOM     15  C   UNL     1       4.000   6.922  -3.825  1.00  0.00    -0.009 A 
ATOM     16  C   UNL     1       5.401   4.485  -3.604  1.00  0.00     0.009 A 
ATOM     17  C   UNL     1       3.255   8.117  -3.895  1.00  0.00     0.010 A 
ATOM     18  C   UNL     1       3.536   5.906  -2.946  1.00  0.00    -0.002 A 
ATOM     19  C   UNL     1       4.247   4.687  -2.844  1.00  0.00    -0.017 A 
ATOM     20  C   UNL     1       2.102   8.310  -3.130  1.00  0.00     0.009 A 
ATOM     21  C   UNL     1       2.360   6.096  -2.164  1.00  0.00    -0.002 A 
ATOM     22  C   UNL     1       3.790   3.690  -1.981  1.00  0.00     0.009 A 
ATOM     23  C   UNL     1       1.647   7.312  -2.265  1.00  0.00    -0.017 A 
ATOM     24  C   UNL     1       1.896   5.078  -1.285  1.00  0.00    -0.009 A 
ATOM     25  C   UNL     1       2.638   3.882  -1.217  1.00  0.00     0.010 A 
ATOM     26  C   UNL     1       0.492   7.513  -1.503  1.00  0.00     0.009 A 
ATOM     27  C   UNL     1       0.718   5.300  -0.518  1.00  0.00    -0.010 A 
ATOM     28  C   UNL     1       0.035   6.520  -0.642  1.00  0.00     0.010 A 
BRANCH  27  29
ATOM     29  C   UNL     1       0.176   4.295   0.410  1.00  0.00    -0.018 A 
ATOM     30  C   UNL     1       0.798   4.046   1.640  1.00  0.00     0.012 A 
ATOM     31  C   UNL     1      -0.972   3.559   0.081  1.00  0.00     0.012 A 
ATOM     32  C   UNL     1       0.280   3.090   2.517  1.00  0.00     0.047 A 
ATOM     33  C   UNL     1      -1.490   2.601   0.961  1.00  0.00     0.047 A 
ATOM     34  C   UNL     1      -0.864   2.363   2.184  1.00  0.00     0.118 A 
BRANCH  34  35
ATOM     35  O   UNL     1      -1.264   1.462   3.131  1.00  0.00    -0.497 OA
ATOM     36  C   UNL     1      -0.820   1.686   4.463  1.00  0.00     0.278 C 
ENDBRANCH  34  35
ENDBRANCH  27  29
ENDBRANCH   4  13
TORSDOF 6
REMARK SMILES CC[N+](C)(C)Cc1ccc(-c2ccc3ccc4c(-c5ccc(OC)cc5)ccc5ccc2c3c54)cc1
REMARK SMILES IDX 7 1 8 2 9 3 10 4 35 5 36 6 6 7 3 8 4 9 5 10 2 11 1 12 11 13
REMARK SMILES IDX 12 14 32 15 13 16 31 17 33 18 14 19 30 20 34 21 15 22 29 23
REMARK SMILES IDX 17 24 16 25 28 26 18 27 27 28 19 29 20 30 26 31 21 32 25 33
REMARK SMILES IDX 22 34 23 35 24 36
REMARK H PARENT
REMARK Flexibility Score: inf
ROOT
ATOM      1  C   UNL     1      10.277   3.003  -1.763  1.00  0.00     0.006 A 
ATOM      2  C   UNL     1       9.638   3.513  -2.904  1.00  0.00     0.010 A 
ATOM      3  C   UNL     1       8.749   4.588  -2.801  1.00  0.00     0.009 A 
ATOM      4  C   UNL     1       8.481   5.181  -1.561  1.00  0.00    -0.018 A 
ATOM      5  C   UNL     1       9.132   4.683  -0.426  1.00  0.00     0.009 A 
ATOM      6  C   UNL     1      10.023   3.610  -0.524  1.00  0.00     0.010 A 
ENDROOT
BRANCH   1   7
ATOM      7  C   UNL     1      11.236   1.844  -1.873  1.00  0.00     0.300 C 
BRANCH   7   8
ATOM      8  N   UNL     1      10.635   0.408  -1.809  1.00  0.00    -0.325 N 
ATOM      9  C   UNL     1       9.114   0.484  -1.777  1.00  0.00     0.334 C 
ATOM     10  C   UNL     1      11.071  -0.393  -3.029  1.00  0.00     0.334 C 
BRANCH   8  11
ATOM     11  C   UNL     1      11.182  -0.226  -0.512  1.00  0.00     0.260 C 
ATOM     12  C   UNL     1      11.047   0.649   0.725  1.00  0.00     0.071 C 
ENDBRANCH   8  11
ENDBRANCH   7   8
ENDBRANCH   1   7
BRANCH   4  13
ATOM     13  C   UNL     1       7.552   6.318  -1.456  1.00  0.00    -0.010 A 
ATOM     14  C   UNL     1       7.827   7.465  -2.218  1.00  0.00     0.010 A 
ATOM     15  C   UNL     1       6.399   6.295  -0.621  1.00  0.00    -0.009 A 
ATOM     16  C   UNL     1       6.989   8.575  -2.171  1.00  0.00     0.009 A 
ATOM     17  C   UNL     1       6.054   5.187   0.179  1.00  0.00     0.010 A 
ATOM     18  C   UNL     1       5.546   7.431  -0.577  1.00  0.00    -0.002 A 
ATOM     19  C   UNL     1       5.852   8.570  -1.359  1.00  0.00    -0.017 A 
ATOM     20  C   UNL     1       4.916   5.190   0.988  1.00  0.00     0.009 A 
ATOM     21  C   UNL     1       4.383   7.442   0.247  1.00  0.00    -0.002 A 
ATOM     22  C   UNL     1       5.014   9.685  -1.314  1.00  0.00     0.009 A 
ATOM     23  C   UNL     1       4.076   6.305   1.030  1.00  0.00    -0.017 A 
ATOM     24  C   UNL     1       3.531   8.579   0.291  1.00  0.00    -0.009 A 
ATOM     25  C   UNL     1       3.877   9.689  -0.506  1.00  0.00     0.010 A 
ATOM     26  C   UNL     1       2.938   6.301   1.842  1.00  0.00     0.009 A 
ATOM     27  C   UNL     1       2.377   8.557   1.124  1.00  0.00    -0.010 A 
ATOM     28  C   UNL     1       2.102   7.412   1.887  1.00  0.00     0.010 A 
BRANCH  27  29
ATOM     29  C   UNL     1       1.449   9.695   1.224  1.00  0.00    -0.018 A 
ATOM     30  C   UNL     1       0.635  10.052   0.142  1.00  0.00     0.012 A 
ATOM     31  C   UNL     1       1.366  10.451   2.402  1.00  0.00     0.012 A 
ATOM     32  C   UNL     1      -0.243  11.134   0.242  1.00  0.00     0.047 A 
ATOM     33  C   UNL     1       0.485  11.536   2.500  1.00  0.00     0.047 A 
ATOM     34  C   UNL     1      -0.324  11.881   1.418  1.00  0.00     0.118 A 
BRANCH  34  35
ATOM     35  O   UNL     1      -1.222  12.910   1.381  1.00  0.00    -0.497 OA
ATOM     36  C   UNL     1      -0.809  14.104   0.728  1.00  0.00     0.278 C 
ENDBRANCH  34  35
ENDBRANCH  27  29
ENDBRANCH   4  13
TORSDOF 6
ENDMDL
MODEL 15
REMARK VINA RESULT:   -14.574      3.210      7.713
REMARK INTER + INTRA:         -20.288
REMARK INTER:                 -18.153
REMARK INTRA:                  -2.135
REMARK CONF_INDEPENDENT:        3.580
REMARK UNBOUND:                -2.135
REMARK SMILES CC[N+](C)(C)Cc1ccc(-c2ccc3ccc4c(-c5ccc(OC)cc5)ccc5ccc2c3c54)cc1
REMARK SMILES IDX 7 1 8 2 9 3 10 4 35 5 36 6 6 7 3 8 4 9 5 10 2 11 1 12 11 13
REMARK SMILES IDX 12 14 32 15 13 16 31 17 33 18 14 19 30 20 34 21 15 22 29 23
REMARK SMILES IDX 17 24 16 25 28 26 18 27 27 28 19 29 20 30 26 31 21 32 25 33
REMARK SMILES IDX 22 34 23 35 24 36
REMARK H PARENT
REMARK Flexibility Score: inf
ROOT
ATOM      1  C   UNL     1       0.234  10.732   2.384  1.00  0.00     0.006 A 
ATOM      2  C   UNL     1       0.584  10.563   1.036  1.00  0.00     0.010 A 
ATOM      3  C   UNL     1       1.549   9.621   0.664  1.00  0.00     0.009 A 
ATOM      4  C   UNL     1       2.181   8.823   1.626  1.00  0.00    -0.018 A 
ATOM      5  C   UNL     1       1.818   8.981   2.969  1.00  0.00     0.009 A 
ATOM      6  C   UNL     1       0.854   9.920   3.345  1.00  0.00     0.010 A 
ENDROOT
BRANCH   1   7
ATOM      7  C   UNL     1      -0.807  11.748   2.786  1.00  0.00     0.300 C 
BRANCH   7   8
ATOM      8  N   UNL     1      -0.343  13.227   2.937  1.00  0.00    -0.325 N 
ATOM      9  C   UNL     1      -1.286  13.973   3.873  1.00  0.00     0.334 C 
ATOM     10  C   UNL     1       1.069  13.274   3.506  1.00  0.00     0.334 C 
BRANCH   8  11
ATOM     11  C   UNL     1      -0.384  13.834   1.517  1.00  0.00     0.260 C 
ATOM     12  C   UNL     1      -1.538  13.348   0.655  1.00  0.00     0.071 C 
ENDBRANCH   8  11
ENDBRANCH   7   8
ENDBRANCH   1   7
BRANCH   4  13
ATOM     13  C   UNL     1       3.189   7.826   1.232  1.00  0.00    -0.010 A 
ATOM     14  C   UNL     1       3.162   6.576   1.870  1.00  0.00     0.010 A 
ATOM     15  C   UNL     1       4.175   8.081   0.237  1.00  0.00    -0.009 A 
ATOM     16  C   UNL     1       4.083   5.584   1.543  1.00  0.00     0.009 A 
ATOM     17  C   UNL     1       4.275   9.310  -0.447  1.00  0.00     0.010 A 
ATOM     18  C   UNL     1       5.113   7.064  -0.093  1.00  0.00    -0.002 A 
ATOM     19  C   UNL     1       5.056   5.815   0.569  1.00  0.00    -0.017 A 
ATOM     20  C   UNL     1       5.251   9.532  -1.420  1.00  0.00     0.009 A 
ATOM     21  C   UNL     1       6.113   7.285  -1.085  1.00  0.00    -0.002 A 
ATOM     22  C   UNL     1       5.977   4.818   0.244  1.00  0.00     0.009 A 
ATOM     23  C   UNL     1       6.171   8.533  -1.746  1.00  0.00    -0.017 A 
ATOM     24  C   UNL     1       7.050   6.268  -1.414  1.00  0.00    -0.009 A 
ATOM     25  C   UNL     1       6.954   5.041  -0.728  1.00  0.00     0.010 A 
ATOM     26  C   UNL     1       7.146   8.763  -2.722  1.00  0.00     0.009 A 
ATOM     27  C   UNL     1       8.036   6.520  -2.408  1.00  0.00    -0.010 A 
ATOM     28  C   UNL     1       8.065   7.770  -3.047  1.00  0.00     0.010 A 
BRANCH  27  29
ATOM     29  C   UNL     1       9.040   5.519  -2.802  1.00  0.00    -0.018 A 
ATOM     30  C   UNL     1       8.703   4.163  -2.887  1.00  0.00     0.012 A 
ATOM     31  C   UNL     1      10.358   5.901  -3.093  1.00  0.00     0.012 A 
ATOM     32  C   UNL     1       9.661   3.216  -3.260  1.00  0.00     0.047 A 
ATOM     33  C   UNL     1      11.316   4.951  -3.467  1.00  0.00     0.047 A 
ATOM     34  C   UNL     1      10.970   3.602  -3.551  1.00  0.00     0.118 A 
BRANCH  34  35
ATOM     35  O   UNL     1      11.804   2.578  -3.902  1.00  0.00    -0.497 OA
ATOM     36  C   UNL     1      11.197   1.401  -4.421  1.00  0.00     0.278 C 
ENDBRANCH  34  35
ENDBRANCH  27  29
ENDBRANCH   4  13
TORSDOF 6
REMARK SMILES CC[N+](C)(C)Cc1ccc(-c2ccc3ccc4c(-c5ccc(OC)cc5)ccc5ccc2c3c54)cc1
REMARK SMILES IDX 7 1 8 2 9 3 10 4 35 5 36 6 6 7 3 8 4 9 5 10 2 11 1 12 11 13
REMARK SMILES IDX 12 14 32 15 13 16 31 17 33 18 14 19 30 20 34 21 15 22 29 23
REMARK SMILES IDX 17 24 16 25 28 26 18 27 27 28 19 29 20 30 26 31 21 32 25 33
REMARK SMILES IDX 22 34 23 35 24 36
REMARK H PARENT
REMARK Flexibility Score: inf
ROOT
ATOM      1  C   UNL     1      -1.185   4.628   1.923  1.00  0.00     0.006 A 
ATOM      2  C   UNL     1      -0.928   3.921   0.739  1.00  0.00     0.010 A 
ATOM      3  C   UNL     1      -0.144   4.486  -0.272  1.00  0.00     0.009 A 
ATOM      4  C   UNL     1       0.405   5.766  -0.123  1.00  0.00    -0.018 A 
ATOM      5  C   UNL     1       0.162   6.464   1.067  1.00  0.00     0.009 A 
ATOM      6  C   UNL     1      -0.619   5.902   2.080  1.00  0.00     0.010 A 
ENDROOT
BRANCH   1   7
ATOM      7  C   UNL     1      -2.031   4.019   3.014  1.00  0.00     0.300 C 
BRANCH   7   8
ATOM      8  N   UNL     1      -1.301   3.548   4.308  1.00  0.00    -0.325 N 
ATOM      9  C   UNL     1      -1.123   4.725   5.259  1.00  0.00     0.334 C 
ATOM     10  C   UNL     1      -2.117   2.464   5.000  1.00  0.00     0.334 C 
BRANCH   8  11
ATOM     11  C   UNL     1       0.067   2.998   3.851  1.00  0.00     0.260 C 
ATOM     12  C   UNL     1       0.004   1.653   3.146  1.00  0.00     0.071 C 
ENDBRANCH   8  11
ENDBRANCH   7   8
ENDBRANCH   1   7
BRANCH   4  13
ATOM     13  C   UNL     1       1.238   6.355  -1.183  1.00  0.00    -0.010 A 
ATOM     14  C   UNL     1       0.937   7.659  -1.608  1.00  0.00     0.010 A 
ATOM     15  C   UNL     1       2.325   5.659  -1.784  1.00  0.00    -0.009 A 
ATOM     16  C   UNL     1       1.686   8.280  -2.604  1.00  0.00     0.009 A 
ATOM     17  C   UNL     1       2.691   4.347  -1.420  1.00  0.00     0.010 A 
ATOM     18  C   UNL     1       3.088   6.298  -2.800  1.00  0.00    -0.002 A 
ATOM     19  C   UNL     1       2.757   7.613  -3.203  1.00  0.00    -0.017 A 
ATOM     20  C   UNL     1       3.763   3.689  -2.024  1.00  0.00     0.009 A 
ATOM     21  C   UNL     1       4.183   5.631  -3.422  1.00  0.00    -0.002 A 
ATOM     22  C   UNL     1       3.506   8.239  -4.201  1.00  0.00     0.009 A 
ATOM     23  C   UNL     1       4.513   4.317  -3.021  1.00  0.00    -0.017 A 
ATOM     24  C   UNL     1       4.944   6.271  -4.438  1.00  0.00    -0.009 A 
ATOM     25  C   UNL     1       4.577   7.581  -4.806  1.00  0.00     0.010 A 
ATOM     26  C   UNL     1       5.586   3.651  -3.622  1.00  0.00     0.009 A 
ATOM     27  C   UNL     1       6.032   5.577  -5.039  1.00  0.00    -0.010 A 
ATOM     28  C   UNL     1       6.333   4.273  -4.617  1.00  0.00     0.010 A 
BRANCH  27  29
ATOM     29  C   UNL     1       6.864   6.172  -6.098  1.00  0.00    -0.018 A 
ATOM     30  C   UNL     1       8.260   6.179  -5.990  1.00  0.00     0.012 A 
ATOM     31  C   UNL     1       6.277   6.749  -7.233  1.00  0.00     0.012 A 
ATOM     32  C   UNL     1       9.046   6.746  -6.997  1.00  0.00     0.047 A 
ATOM     33  C   UNL     1       7.066   7.317  -8.241  1.00  0.00     0.047 A 
ATOM     34  C   UNL     1       8.456   7.317  -8.126  1.00  0.00     0.118 A 
BRANCH  34  35
ATOM     35  O   UNL     1       9.338   7.834  -9.033  1.00  0.00    -0.497 OA
ATOM     36  C   UNL     1      10.524   8.424  -8.514  1.00  0.00     0.278 C 
ENDBRANCH  34  35
ENDBRANCH  27  29
ENDBRANCH   4  13
TORSDOF 6
ENDMDL
MODEL 16
REMARK VINA RESULT:   -14.537      3.386      8.297
REMARK INTER + INTRA:         -20.184
REMARK INTER:                 -18.117
REMARK INTRA:                  -2.067
REMARK CONF_INDEPENDENT:        3.580
REMARK UNBOUND:                -2.067
REMARK SMILES CC[N+](C)(C)Cc1ccc(-c2ccc3ccc4c(-c5ccc(OC)cc5)ccc5ccc2c3c54)cc1
REMARK SMILES IDX 7 1 8 2 9 3 10 4 35 5 36 6 6 7 3 8 4 9 5 10 2 11 1 12 11 13
REMARK SMILES IDX 12 14 32 15 13 16 31 17 33 18 14 19 30 20 34 21 15 22 29 23
REMARK SMILES IDX 17 24 16 25 28 26 18 27 27 28 19 29 20 30 26 31 21 32 25 33
REMARK SMILES IDX 22 34 23 35 24 36
REMARK H PARENT
REMARK Flexibility Score: inf
ROOT
ATOM      1  C   UNL     1      -1.335  10.299  -1.104  1.00  0.00     0.006 A 
ATOM      2  C   UNL     1      -1.614   9.217  -1.952  1.00  0.00     0.010 A 
ATOM      3  C   UNL     1      -0.702   8.166  -2.088  1.00  0.00     0.009 A 
ATOM      4  C   UNL     1       0.505   8.166  -1.377  1.00  0.00    -0.018 A 
ATOM      5  C   UNL     1       0.775   9.239  -0.518  1.00  0.00     0.009 A 
ATOM      6  C   UNL     1      -0.135  10.291  -0.378  1.00  0.00     0.010 A 
ENDROOT
BRANCH   1   7
ATOM      7  C   UNL     1      -2.319  11.434  -0.957  1.00  0.00     0.300 C 
BRANCH   7   8
ATOM      8  N   UNL     1      -1.742  12.845  -0.638  1.00  0.00    -0.325 N 
ATOM      9  C   UNL     1      -0.543  13.129  -1.534  1.00  0.00     0.334 C 
ATOM     10  C   UNL     1      -2.807  13.908  -0.874  1.00  0.00     0.334 C 
BRANCH   8  11
ATOM     11  C   UNL     1      -1.322  12.809   0.848  1.00  0.00     0.260 C 
ATOM     12  C   UNL     1      -0.280  13.846   1.235  1.00  0.00     0.071 C 
ENDBRANCH   8  11
ENDBRANCH   7   8
ENDBRANCH   1   7
BRANCH   4  13
ATOM     13  C   UNL     1       1.459   7.055  -1.513  1.00  0.00    -0.010 A 
ATOM     14  C   UNL     1       1.384   6.005  -0.584  1.00  0.00     0.010 A 
ATOM     15  C   UNL     1       2.442   7.006  -2.543  1.00  0.00    -0.009 A 
ATOM     16  C   UNL     1       2.252   4.919  -0.657  1.00  0.00     0.009 A 
ATOM     17  C   UNL     1       2.589   8.020  -3.511  1.00  0.00     0.010 A 
ATOM     18  C   UNL     1       3.326   5.895  -2.613  1.00  0.00    -0.002 A 
ATOM     19  C   UNL     1       3.222   4.854  -1.660  1.00  0.00    -0.017 A 
ATOM     20  C   UNL     1       3.560   7.946  -4.511  1.00  0.00     0.009 A 
ATOM     21  C   UNL     1       4.321   5.814  -3.630  1.00  0.00    -0.002 A 
ATOM     22  C   UNL     1       4.090   3.764  -1.730  1.00  0.00     0.009 A 
ATOM     23  C   UNL     1       4.427   6.854  -4.581  1.00  0.00    -0.017 A 
ATOM     24  C   UNL     1       5.205   4.702  -3.698  1.00  0.00    -0.009 A 
ATOM     25  C   UNL     1       5.062   3.690  -2.729  1.00  0.00     0.010 A 
ATOM     26  C   UNL     1       5.398   6.787  -5.586  1.00  0.00     0.009 A 
ATOM     27  C   UNL     1       6.187   4.652  -4.727  1.00  0.00    -0.010 A 
ATOM     28  C   UNL     1       6.265   5.701  -5.656  1.00  0.00     0.010 A 
BRANCH  27  29
ATOM     29  C   UNL     1       7.138   3.537  -4.862  1.00  0.00    -0.018 A 
ATOM     30  C   UNL     1       6.700   2.267  -5.259  1.00  0.00     0.012 A 
ATOM     31  C   UNL     1       8.501   3.719  -4.589  1.00  0.00     0.012 A 
ATOM     32  C   UNL     1       7.606   1.211  -5.384  1.00  0.00     0.047 A 
ATOM     33  C   UNL     1       9.408   2.660  -4.715  1.00  0.00     0.047 A 
ATOM     34  C   UNL     1       8.963   1.399  -5.113  1.00  0.00     0.118 A 
BRANCH  34  35
ATOM     35  O   UNL     1       9.738   0.286  -5.275  1.00  0.00    -0.497 OA
ATOM     36  C   UNL     1      10.537  -0.110  -4.168  1.00  0.00     0.278 C 
ENDBRANCH  34  35
ENDBRANCH  27  29
ENDBRANCH   4  13
TORSDOF 6
REMARK SMILES CC[N+](C)(C)Cc1ccc(-c2ccc3ccc4c(-c5ccc(OC)cc5)ccc5ccc2c3c54)cc1
REMARK SMILES IDX 7 1 8 2 9 3 10 4 35 5 36 6 6 7 3 8 4 9 5 10 2 11 1 12 11 13
REMARK SMILES IDX 12 14 32 15 13 16 31 17 33 18 14 19 30 20 34 21 15 22 29 23
REMARK SMILES IDX 17 24 16 25 28 26 18 27 27 28 19 29 20 30 26 31 21 32 25 33
REMARK SMILES IDX 22 34 23 35 24 36
REMARK H PARENT
REMARK Flexibility Score: inf
ROOT
ATOM      1  C   UNL     1       0.997   7.704   3.735  1.00  0.00     0.006 A 
ATOM      2  C   UNL     1       1.330   6.369   3.457  1.00  0.00     0.010 A 
ATOM      3  C   UNL     1       2.385   6.065   2.592  1.00  0.00     0.009 A 
ATOM      4  C   UNL     1       3.135   7.082   1.988  1.00  0.00    -0.018 A 
ATOM      5  C   UNL     1       2.813   8.413   2.279  1.00  0.00     0.009 A 
ATOM      6  C   UNL     1       1.760   8.723   3.145  1.00  0.00     0.010 A 
ENDROOT
BRANCH   1   7
ATOM      7  C   UNL     1      -0.142   8.034   4.669  1.00  0.00     0.300 C 
BRANCH   7   8
ATOM      8  N   UNL     1      -1.415   8.680   4.046  1.00  0.00    -0.325 N 
ATOM      9  C   UNL     1      -2.473   8.883   5.123  1.00  0.00     0.334 C 
ATOM     10  C   UNL     1      -1.065  10.027   3.427  1.00  0.00     0.334 C 
BRANCH   8  11
ATOM     11  C   UNL     1      -1.911   7.693   2.967  1.00  0.00     0.260 C 
ATOM     12  C   UNL     1      -2.003   8.280   1.567  1.00  0.00     0.071 C 
ENDBRANCH   8  11
ENDBRANCH   7   8
ENDBRANCH   1   7
BRANCH   4  13
ATOM     13  C   UNL     1       4.251   6.759   1.085  1.00  0.00    -0.010 A 
ATOM     14  C   UNL     1       4.956   5.566   1.310  1.00  0.00     0.010 A 
ATOM     15  C   UNL     1       4.635   7.603   0.005  1.00  0.00    -0.009 A 
ATOM     16  C   UNL     1       6.019   5.196   0.492  1.00  0.00     0.009 A 
ATOM     17  C   UNL     1       3.985   8.820  -0.287  1.00  0.00     0.010 A 
ATOM     18  C   UNL     1       5.722   7.220  -0.828  1.00  0.00    -0.002 A 
ATOM     19  C   UNL     1       6.409   6.010  -0.574  1.00  0.00    -0.017 A 
ATOM     20  C   UNL     1       4.381   9.628  -1.354  1.00  0.00     0.009 A 
ATOM     21  C   UNL     1       6.132   8.041  -1.919  1.00  0.00    -0.002 A 
ATOM     22  C   UNL     1       7.476   5.636  -1.392  1.00  0.00     0.009 A 
ATOM     23  C   UNL     1       5.447   9.251  -2.174  1.00  0.00    -0.017 A 
ATOM     24  C   UNL     1       7.219   7.657  -2.751  1.00  0.00    -0.009 A 
ATOM     25  C   UNL     1       7.873   6.443  -2.459  1.00  0.00     0.010 A 
ATOM     26  C   UNL     1       5.838  10.065  -3.241  1.00  0.00     0.009 A 
ATOM     27  C   UNL     1       7.604   8.499  -3.832  1.00  0.00    -0.010 A 
ATOM     28  C   UNL     1       6.902   9.693  -4.058  1.00  0.00     0.010 A 
BRANCH  27  29
ATOM     29  C   UNL     1       8.719   8.171  -4.735  1.00  0.00    -0.018 A 
ATOM     30  C   UNL     1       8.528   8.129  -6.122  1.00  0.00     0.012 A 
ATOM     31  C   UNL     1       9.994   7.886  -4.226  1.00  0.00     0.012 A 
ATOM     32  C   UNL     1       9.590   7.816  -6.975  1.00  0.00     0.047 A 
ATOM     33  C   UNL     1      11.057   7.572  -5.082  1.00  0.00     0.047 A 
ATOM     34  C   UNL     1      10.858   7.536  -6.462  1.00  0.00     0.118 A 
BRANCH  34  35
ATOM     35  O   UNL     1      11.804   7.247  -7.405  1.00  0.00    -0.497 OA
ATOM     36  C   UNL     1      11.343   7.000  -8.727  1.00  0.00     0.278 C 
ENDBRANCH  34  35
ENDBRANCH  27  29
ENDBRANCH   4  13
TORSDOF 6
ENDMDL
MODEL 17
REMARK VINA RESULT:   -14.529      3.185      7.438
REMARK INTER + INTRA:         -20.223
REMARK INTER:                 -18.109
REMARK INTRA:                  -2.114
REMARK CONF_INDEPENDENT:        3.580
REMARK UNBOUND:                -2.114
REMARK SMILES CC[N+](C)(C)Cc1ccc(-c2ccc3ccc4c(-c5ccc(OC)cc5)ccc5ccc2c3c54)cc1
REMARK SMILES IDX 7 1 8 2 9 3 10 4 35 5 36 6 6 7 3 8 4 9 5 10 2 11 1 12 11 13
REMARK SMILES IDX 12 14 32 15 13 16 31 17 33 18 14 19 30 20 34 21 15 22 29 23
REMARK SMILES IDX 17 24 16 25 28 26 18 27 27 28 19 29 20 30 26 31 21 32 25 33
REMARK SMILES IDX 22 34 23 35 24 36
REMARK H PARENT
REMARK Flexibility Score: inf
ROOT
ATOM      1  C   UNL     1      10.357   8.934  -4.013  1.00  0.00     0.006 A 
ATOM      2  C   UNL     1      10.308   8.705  -2.629  1.00  0.00     0.010 A 
ATOM      3  C   UNL     1       9.315   7.890  -2.078  1.00  0.00     0.009 A 
ATOM      4  C   UNL     1       8.352   7.281  -2.892  1.00  0.00    -0.018 A 
ATOM      5  C   UNL     1       8.411   7.497  -4.274  1.00  0.00     0.009 A 
ATOM      6  C   UNL     1       9.403   8.309  -4.831  1.00  0.00     0.010 A 
ENDROOT
BRANCH   1   7
ATOM      7  C   UNL     1      11.428   9.814  -4.610  1.00  0.00     0.300 C 
BRANCH   7   8
ATOM      8  N   UNL     1      11.116  11.334  -4.743  1.00  0.00    -0.325 N 
ATOM      9  C   UNL     1      11.613  12.075  -3.508  1.00  0.00     0.334 C 
ATOM     10  C   UNL     1      11.803  11.900  -5.978  1.00  0.00     0.334 C 
BRANCH   8  11
ATOM     11  C   UNL     1       9.580  11.445  -4.870  1.00  0.00     0.260 C 
ATOM     12  C   UNL     1       8.847  11.602  -3.547  1.00  0.00     0.071 C 
ENDBRANCH   8  11
ENDBRANCH   7   8
ENDBRANCH   1   7
BRANCH   4  13
ATOM     13  C   UNL     1       7.313   6.416  -2.310  1.00  0.00    -0.010 A 
ATOM     14  C   UNL     1       7.208   5.101  -2.790  1.00  0.00     0.010 A 
ATOM     15  C   UNL     1       6.424   6.861  -1.290  1.00  0.00    -0.009 A 
ATOM     16  C   UNL     1       6.251   4.226  -2.282  1.00  0.00     0.009 A 
ATOM     17  C   UNL     1       6.459   8.165  -0.758  1.00  0.00     0.010 A 
ATOM     18  C   UNL     1       5.449   5.963  -0.774  1.00  0.00    -0.002 A 
ATOM     19  C   UNL     1       5.372   4.644  -1.279  1.00  0.00    -0.017 A 
ATOM     20  C   UNL     1       5.577   8.574   0.244  1.00  0.00     0.009 A 
ATOM     21  C   UNL     1       4.545   6.375   0.248  1.00  0.00    -0.002 A 
ATOM     22  C   UNL     1       4.414   3.765  -0.772  1.00  0.00     0.009 A 
ATOM     23  C   UNL     1       4.621   7.693   0.753  1.00  0.00    -0.017 A 
ATOM     24  C   UNL     1       3.570   5.476   0.762  1.00  0.00    -0.009 A 
ATOM     25  C   UNL     1       3.531   4.173   0.228  1.00  0.00     0.010 A 
ATOM     26  C   UNL     1       3.740   8.109   1.756  1.00  0.00     0.009 A 
ATOM     27  C   UNL     1       2.682   5.918   1.783  1.00  0.00    -0.010 A 
ATOM     28  C   UNL     1       2.785   7.234   2.263  1.00  0.00     0.010 A 
BRANCH  27  29
ATOM     29  C   UNL     1       1.646   5.049   2.364  1.00  0.00    -0.018 A 
ATOM     30  C   UNL     1       0.930   4.153   1.560  1.00  0.00     0.012 A 
ATOM     31  C   UNL     1       1.348   5.105   3.733  1.00  0.00     0.012 A 
ATOM     32  C   UNL     1      -0.053   3.331   2.117  1.00  0.00     0.047 A 
ATOM     33  C   UNL     1       0.362   4.281   4.289  1.00  0.00     0.047 A 
ATOM     34  C   UNL     1      -0.343   3.389   3.481  1.00  0.00     0.118 A 
BRANCH  34  35
ATOM     35  O   UNL     1      -1.324   2.533   3.894  1.00  0.00    -0.497 OA
ATOM     36  C   UNL     1      -2.224   3.012   4.886  1.00  0.00     0.278 C 
ENDBRANCH  34  35
ENDBRANCH  27  29
ENDBRANCH   4  13
TORSDOF 6
REMARK SMILES CC[N+](C)(C)Cc1ccc(-c2ccc3ccc4c(-c5ccc(OC)cc5)ccc5ccc2c3c54)cc1
REMARK SMILES IDX 7 1 8 2 9 3 10 4 35 5 36 6 6 7 3 8 4 9 5 10 2 11 1 12 11 13
REMARK SMILES IDX 12 14 32 15 13 16 31 17 33 18 14 19 30 20 34 21 15 22 29 23
REMARK SMILES IDX 17 24 16 25 28 26 18 27 27 28 19 29 20 30 26 31 21 32 25 33
REMARK SMILES IDX 22 34 23 35 24 36
REMARK H PARENT
REMARK Flexibility Score: inf
ROOT
ATOM      1  C   UNL     1       5.545   5.111  -6.793  1.00  0.00     0.006 A 
ATOM      2  C   UNL     1       5.470   6.511  -6.846  1.00  0.00     0.010 A 
ATOM      3  C   UNL     1       4.884   7.233  -5.802  1.00  0.00     0.009 A 
ATOM      4  C   UNL     1       4.364   6.576  -4.679  1.00  0.00    -0.018 A 
ATOM      5  C   UNL     1       4.454   5.180  -4.620  1.00  0.00     0.009 A 
ATOM      6  C   UNL     1       5.041   4.455  -5.660  1.00  0.00     0.010 A 
ENDROOT
BRANCH   1   7
ATOM      7  C   UNL     1       6.177   4.331  -7.920  1.00  0.00     0.300 C 
BRANCH   7   8
ATOM      8  N   UNL     1       7.602   3.751  -7.679  1.00  0.00    -0.325 N 
ATOM      9  C   UNL     1       8.494   4.054  -8.875  1.00  0.00     0.334 C 
ATOM     10  C   UNL     1       8.211   4.372  -6.429  1.00  0.00     0.334 C 
BRANCH   8  11
ATOM     11  C   UNL     1       7.419   2.228  -7.502  1.00  0.00     0.260 C 
ATOM     12  C   UNL     1       7.784   1.704  -6.122  1.00  0.00     0.071 C 
ENDBRANCH   8  11
ENDBRANCH   7   8
ENDBRANCH   1   7
BRANCH   4  13
ATOM     13  C   UNL     1       3.756   7.338  -3.577  1.00  0.00    -0.010 A 
ATOM     14  C   UNL     1       4.320   8.580  -3.246  1.00  0.00     0.010 A 
ATOM     15  C   UNL     1       2.630   6.865  -2.844  1.00  0.00    -0.009 A 
ATOM     16  C   UNL     1       3.793   9.356  -2.217  1.00  0.00     0.009 A 
ATOM     17  C   UNL     1       2.008   5.628  -3.108  1.00  0.00     0.010 A 
ATOM     18  C   UNL     1       2.095   7.662  -1.795  1.00  0.00    -0.002 A 
ATOM     19  C   UNL     1       2.687   8.910  -1.489  1.00  0.00    -0.017 A 
ATOM     20  C   UNL     1       0.903   5.190  -2.376  1.00  0.00     0.009 A 
ATOM     21  C   UNL     1       0.968   7.220  -1.043  1.00  0.00    -0.002 A 
ATOM     22  C   UNL     1       2.162   9.690  -0.459  1.00  0.00     0.009 A 
ATOM     23  C   UNL     1       0.376   5.972  -1.346  1.00  0.00    -0.017 A 
ATOM     24  C   UNL     1       0.435   8.017   0.007  1.00  0.00    -0.009 A 
ATOM     25  C   UNL     1       1.058   9.252   0.274  1.00  0.00     0.010 A 
ATOM     26  C   UNL     1      -0.730   5.527  -0.617  1.00  0.00     0.009 A 
ATOM     27  C   UNL     1      -0.691   7.547   0.739  1.00  0.00    -0.010 A 
ATOM     28  C   UNL     1      -1.255   6.304   0.411  1.00  0.00     0.010 A 
BRANCH  27  29
ATOM     29  C   UNL     1      -1.298   8.313   1.839  1.00  0.00    -0.018 A 
ATOM     30  C   UNL     1      -2.578   8.865   1.706  1.00  0.00     0.012 A 
ATOM     31  C   UNL     1      -0.605   8.512   3.042  1.00  0.00     0.012 A 
ATOM     32  C   UNL     1      -3.149   9.593   2.753  1.00  0.00     0.047 A 
ATOM     33  C   UNL     1      -1.179   9.242   4.090  1.00  0.00     0.047 A 
ATOM     34  C   UNL     1      -2.456   9.786   3.949  1.00  0.00     0.118 A 
BRANCH  34  35
ATOM     35  O   UNL     1      -3.129  10.515   4.889  1.00  0.00    -0.497 OA
ATOM     36  C   UNL     1      -2.479  11.675   5.392  1.00  0.00     0.278 C 
ENDBRANCH  34  35
ENDBRANCH  27  29
ENDBRANCH   4  13
TORSDOF 6
ENDMDL
MODEL 18
REMARK VINA RESULT:   -14.465      3.069      7.248
REMARK INTER + INTRA:         -20.511
REMARK INTER:                 -18.045
REMARK INTRA:                  -2.466
REMARK CONF_INDEPENDENT:        3.580
REMARK UNBOUND:                -2.466
REMARK SMILES CC[N+](C)(C)Cc1ccc(-c2ccc3ccc4c(-c5ccc(OC)cc5)ccc5ccc2c3c54)cc1
REMARK SMILES IDX 7 1 8 2 9 3 10 4 35 5 36 6 6 7 3 8 4 9 5 10 2 11 1 12 11 13
REMARK SMILES IDX 12 14 32 15 13 16 31 17 33 18 14 19 30 20 34 21 15 22 29 23
REMARK SMILES IDX 17 24 16 25 28 26 18 27 27 28 19 29 20 30 26 31 21 32 25 33
REMARK SMILES IDX 22 34 23 35 24 36
REMARK H PARENT
REMARK Flexibility Score: inf
ROOT
ATOM      1  C   UNL     1      10.564   9.641  -2.188  1.00  0.00     0.006 A 
ATOM      2  C   UNL     1      10.095   9.406  -0.887  1.00  0.00     0.010 A 
ATOM      3  C   UNL     1       9.073   8.481  -0.654  1.00  0.00     0.009 A 
ATOM      4  C   UNL     1       8.499   7.765  -1.712  1.00  0.00    -0.018 A 
ATOM      5  C   UNL     1       8.980   7.987  -3.009  1.00  0.00     0.009 A 
ATOM      6  C   UNL     1      10.002   8.909  -3.245  1.00  0.00     0.010 A 
ENDROOT
BRANCH   1   7
ATOM      7  C   UNL     1      11.667  10.639  -2.440  1.00  0.00     0.300 C 
BRANCH   7   8
ATOM      8  N   UNL     1      11.249  12.112  -2.724  1.00  0.00    -0.325 N 
ATOM      9  C   UNL     1      11.789  13.024  -1.630  1.00  0.00     0.334 C 
ATOM     10  C   UNL     1      11.804  12.561  -4.069  1.00  0.00     0.334 C 
BRANCH   8  11
ATOM     11  C   UNL     1       9.705  12.123  -2.736  1.00  0.00     0.260 C 
ATOM     12  C   UNL     1       9.081  11.828  -4.090  1.00  0.00     0.071 C 
ENDBRANCH   8  11
ENDBRANCH   7   8
ENDBRANCH   1   7
BRANCH   4  13
ATOM     13  C   UNL     1       7.430   6.784  -1.465  1.00  0.00    -0.010 A 
ATOM     14  C   UNL     1       7.531   5.530  -2.087  1.00  0.00     0.010 A 
ATOM     15  C   UNL     1       6.313   7.060  -0.625  1.00  0.00    -0.009 A 
ATOM     16  C   UNL     1       6.558   4.553  -1.893  1.00  0.00     0.009 A 
ATOM     17  C   UNL     1       6.134   8.294   0.033  1.00  0.00     0.010 A 
ATOM     18  C   UNL     1       5.323   6.058  -0.430  1.00  0.00    -0.002 A 
ATOM     19  C   UNL     1       5.456   4.804  -1.071  1.00  0.00    -0.017 A 
ATOM     20  C   UNL     1       5.030   8.536   0.852  1.00  0.00     0.009 A 
ATOM     21  C   UNL     1       4.193   6.300   0.404  1.00  0.00    -0.002 A 
ATOM     22  C   UNL     1       4.483   3.823  -0.880  1.00  0.00     0.009 A 
ATOM     23  C   UNL     1       4.058   7.552   1.045  1.00  0.00    -0.017 A 
ATOM     24  C   UNL     1       3.203   5.297   0.598  1.00  0.00    -0.009 A 
ATOM     25  C   UNL     1       3.379   4.065  -0.061  1.00  0.00     0.010 A 
ATOM     26  C   UNL     1       2.955   7.802   1.867  1.00  0.00     0.009 A 
ATOM     27  C   UNL     1       2.087   5.570   1.438  1.00  0.00    -0.010 A 
ATOM     28  C   UNL     1       1.984   6.824   2.060  1.00  0.00     0.010 A 
BRANCH  27  29
ATOM     29  C   UNL     1       1.021   4.586   1.685  1.00  0.00    -0.018 A 
ATOM     30  C   UNL     1       0.920   3.936   2.922  1.00  0.00     0.012 A 
ATOM     31  C   UNL     1       0.088   4.272   0.686  1.00  0.00     0.012 A 
ATOM     32  C   UNL     1      -0.093   3.001   3.151  1.00  0.00     0.047 A 
ATOM     33  C   UNL     1      -0.926   3.335   0.918  1.00  0.00     0.047 A 
ATOM     34  C   UNL     1      -1.020   2.695   2.154  1.00  0.00     0.118 A 
BRANCH  34  35
ATOM     35  O   UNL     1      -1.957   1.766   2.510  1.00  0.00    -0.497 OA
ATOM     36  C   UNL     1      -1.510   0.423   2.657  1.00  0.00     0.278 C 
ENDBRANCH  34  35
ENDBRANCH  27  29
ENDBRANCH   4  13
TORSDOF 6
REMARK SMILES CC[N+](C)(C)Cc1ccc(-c2ccc3ccc4c(-c5ccc(OC)cc5)ccc5ccc2c3c54)cc1
REMARK SMILES IDX 7 1 8 2 9 3 10 4 35 5 36 6 6 7 3 8 4 9 5 10 2 11 1 12 11 13
REMARK SMILES IDX 12 14 32 15 13 16 31 17 33 18 14 19 30 20 34 21 15 22 29 23
REMARK SMILES IDX 17 24 16 25 28 26 18 27 27 28 19 29 20 30 26 31 21 32 25 33
REMARK SMILES IDX 22 34 23 35 24 36
REMARK H PARENT
REMARK Flexibility Score: inf
ROOT
ATOM      1  C   UNL     1       6.687   2.907  -6.959  1.00  0.00     0.006 A 
ATOM      2  C   UNL     1       6.392   4.138  -7.565  1.00  0.00     0.010 A 
ATOM      3  C   UNL     1       5.959   5.223  -6.798  1.00  0.00     0.009 A 
ATOM      4  C   UNL     1       5.815   5.108  -5.409  1.00  0.00    -0.018 A 
ATOM      5  C   UNL     1       6.125   3.885  -4.803  1.00  0.00     0.009 A 
ATOM      6  C   UNL     1       6.560   2.797  -5.566  1.00  0.00     0.010 A 
ENDROOT
BRANCH   1   7
ATOM      7  C   UNL     1       7.154   1.735  -7.787  1.00  0.00     0.300 C 
BRANCH   7   8
ATOM      8  N   UNL     1       8.683   1.439  -7.811  1.00  0.00    -0.325 N 
ATOM      9  C   UNL     1       9.092   0.717  -6.534  1.00  0.00     0.334 C 
ATOM     10  C   UNL     1       9.025   0.567  -9.012  1.00  0.00     0.334 C 
BRANCH   8  11
ATOM     11  C   UNL     1       9.382   2.813  -7.914  1.00  0.00     0.260 C 
ATOM     12  C   UNL     1      10.833   2.819  -7.461  1.00  0.00     0.071 C 
ENDBRANCH   8  11
ENDBRANCH   7   8
ENDBRANCH   1   7
BRANCH   4  13
ATOM     13  C   UNL     1       5.368   6.255  -4.602  1.00  0.00    -0.010 A 
ATOM     14  C   UNL     1       6.196   7.387  -4.552  1.00  0.00     0.010 A 
ATOM     15  C   UNL     1       4.140   6.256  -3.880  1.00  0.00    -0.009 A 
ATOM     16  C   UNL     1       5.834   8.509  -3.812  1.00  0.00     0.009 A 
ATOM     17  C   UNL     1       3.255   5.159  -3.872  1.00  0.00     0.010 A 
ATOM     18  C   UNL     1       3.775   7.404  -3.126  1.00  0.00    -0.002 A 
ATOM     19  C   UNL     1       4.632   8.529  -3.099  1.00  0.00    -0.017 A 
ATOM     20  C   UNL     1       2.056   5.187  -3.157  1.00  0.00     0.009 A 
ATOM     21  C   UNL     1       2.553   7.439  -2.393  1.00  0.00    -0.002 A 
ATOM     22  C   UNL     1       4.272   9.655  -2.359  1.00  0.00     0.009 A 
ATOM     23  C   UNL     1       1.695   6.316  -2.418  1.00  0.00    -0.017 A 
ATOM     24  C   UNL     1       2.188   8.589  -1.639  1.00  0.00    -0.009 A 
ATOM     25  C   UNL     1       3.074   9.684  -1.643  1.00  0.00     0.010 A 
ATOM     26  C   UNL     1       0.493   6.337  -1.705  1.00  0.00     0.009 A 
ATOM     27  C   UNL     1       0.961   8.591  -0.918  1.00  0.00    -0.010 A 
ATOM     28  C   UNL     1       0.133   7.459  -0.966  1.00  0.00     0.010 A 
BRANCH  27  29
ATOM     29  C   UNL     1       0.516   9.741  -0.114  1.00  0.00    -0.018 A 
ATOM     30  C   UNL     1      -0.516  10.573  -0.565  1.00  0.00     0.012 A 
ATOM     31  C   UNL     1       1.122  10.033   1.117  1.00  0.00     0.012 A 
ATOM     32  C   UNL     1      -0.934  11.664   0.202  1.00  0.00     0.047 A 
ATOM     33  C   UNL     1       0.702  11.127   1.883  1.00  0.00     0.047 A 
ATOM     34  C   UNL     1      -0.329  11.948   1.427  1.00  0.00     0.118 A 
BRANCH  34  35
ATOM     35  O   UNL     1      -0.833  13.041   2.074  1.00  0.00    -0.497 OA
ATOM     36  C   UNL     1       0.065  14.116   2.320  1.00  0.00     0.278 C 
ENDBRANCH  34  35
ENDBRANCH  27  29
ENDBRANCH   4  13
TORSDOF 6
ENDMDL
MODEL 19
REMARK VINA RESULT:   -14.127      3.571      8.075
REMARK INTER + INTRA:         -20.244
REMARK INTER:                 -17.707
REMARK INTRA:                  -2.537
REMARK CONF_INDEPENDENT:        3.580
REMARK UNBOUND:                -2.537
REMARK SMILES CC[N+](C)(C)Cc1ccc(-c2ccc3ccc4c(-c5ccc(OC)cc5)ccc5ccc2c3c54)cc1
REMARK SMILES IDX 7 1 8 2 9 3 10 4 35 5 36 6 6 7 3 8 4 9 5 10 2 11 1 12 11 13
REMARK SMILES IDX 12 14 32 15 13 16 31 17 33 18 14 19 30 20 34 21 15 22 29 23
REMARK SMILES IDX 17 24 16 25 28 26 18 27 27 28 19 29 20 30 26 31 21 32 25 33
REMARK SMILES IDX 22 34 23 35 24 36
REMARK H PARENT
REMARK Flexibility Score: inf
ROOT
ATOM      1  C   UNL     1       1.594   9.366  -0.003  1.00  0.00     0.006 A 
ATOM      2  C   UNL     1       2.995   9.315   0.073  1.00  0.00     0.010 A 
ATOM      3  C   UNL     1       3.732   8.588  -0.866  1.00  0.00     0.009 A 
ATOM      4  C   UNL     1       3.092   7.900  -1.905  1.00  0.00    -0.018 A 
ATOM      5  C   UNL     1       1.696   7.965  -1.989  1.00  0.00     0.009 A 
ATOM      6  C   UNL     1       0.954   8.692  -1.054  1.00  0.00     0.010 A 
ENDROOT
BRANCH   1   7
ATOM      7  C   UNL     1       0.797  10.150   1.010  1.00  0.00     0.300 C 
BRANCH   7   8
ATOM      8  N   UNL     1       0.335   9.400   2.294  1.00  0.00    -0.325 N 
ATOM      9  C   UNL     1      -0.443  10.349   3.197  1.00  0.00     0.334 C 
ATOM     10  C   UNL     1      -0.557   8.224   1.917  1.00  0.00     0.334 C 
BRANCH   8  11
ATOM     11  C   UNL     1       1.623   8.911   2.991  1.00  0.00     0.260 C 
ATOM     12  C   UNL     1       1.872   7.415   2.880  1.00  0.00     0.071 C 
ENDBRANCH   8  11
ENDBRANCH   7   8
ENDBRANCH   1   7
BRANCH   4  13
ATOM     13  C   UNL     1       3.870   7.143  -2.898  1.00  0.00    -0.010 A 
ATOM     14  C   UNL     1       3.844   7.585  -4.230  1.00  0.00     0.010 A 
ATOM     15  C   UNL     1       4.641   5.995  -2.558  1.00  0.00    -0.009 A 
ATOM     16  C   UNL     1       4.561   6.919  -5.221  1.00  0.00     0.009 A 
ATOM     17  C   UNL     1       4.718   5.483  -1.247  1.00  0.00     0.010 A 
ATOM     18  C   UNL     1       5.372   5.319  -3.574  1.00  0.00    -0.002 A 
ATOM     19  C   UNL     1       5.324   5.792  -4.906  1.00  0.00    -0.017 A 
ATOM     20  C   UNL     1       5.483   4.356  -0.942  1.00  0.00     0.009 A 
ATOM     21  C   UNL     1       6.154   4.167  -3.269  1.00  0.00    -0.002 A 
ATOM     22  C   UNL     1       6.041   5.128  -5.902  1.00  0.00     0.009 A 
ATOM     23  C   UNL     1       6.203   3.693  -1.938  1.00  0.00    -0.017 A 
ATOM     24  C   UNL     1       6.884   3.492  -4.286  1.00  0.00    -0.009 A 
ATOM     25  C   UNL     1       6.805   4.000  -5.597  1.00  0.00     0.010 A 
ATOM     26  C   UNL     1       6.967   2.565  -1.625  1.00  0.00     0.009 A 
ATOM     27  C   UNL     1       7.656   2.345  -3.948  1.00  0.00    -0.010 A 
ATOM     28  C   UNL     1       7.682   1.901  -2.616  1.00  0.00     0.010 A 
BRANCH  27  29
ATOM     29  C   UNL     1       8.436   1.592  -4.943  1.00  0.00    -0.018 A 
ATOM     30  C   UNL     1       8.401   0.193  -4.970  1.00  0.00     0.012 A 
ATOM     31  C   UNL     1       9.236   2.260  -5.882  1.00  0.00     0.012 A 
ATOM     32  C   UNL     1       9.144  -0.517  -5.917  1.00  0.00     0.047 A 
ATOM     33  C   UNL     1       9.981   1.547  -6.829  1.00  0.00     0.047 A 
ATOM     34  C   UNL     1       9.937   0.153  -6.850  1.00  0.00     0.118 A 
BRANCH  34  35
ATOM     35  O   UNL     1      10.610  -0.661  -7.717  1.00  0.00    -0.497 OA
ATOM     36  C   UNL     1      10.583  -0.300  -9.093  1.00  0.00     0.278 C 
ENDBRANCH  34  35
ENDBRANCH  27  29
ENDBRANCH   4  13
TORSDOF 6
REMARK SMILES CC[N+](C)(C)Cc1ccc(-c2ccc3ccc4c(-c5ccc(OC)cc5)ccc5ccc2c3c54)cc1
REMARK SMILES IDX 7 1 8 2 9 3 10 4 35 5 36 6 6 7 3 8 4 9 5 10 2 11 1 12 11 13
REMARK SMILES IDX 12 14 32 15 13 16 31 17 33 18 14 19 30 20 34 21 15 22 29 23
REMARK SMILES IDX 17 24 16 25 28 26 18 27 27 28 19 29 20 30 26 31 21 32 25 33
REMARK SMILES IDX 22 34 23 35 24 36
REMARK H PARENT
REMARK Flexibility Score: inf
ROOT
ATOM      1  C   UNL     1       7.423  11.543  -5.866  1.00  0.00     0.006 A 
ATOM      2  C   UNL     1       8.469  11.619  -4.932  1.00  0.00     0.010 A 
ATOM      3  C   UNL     1       8.619  10.637  -3.950  1.00  0.00     0.009 A 
ATOM      4  C   UNL     1       7.734   9.553  -3.878  1.00  0.00    -0.018 A 
ATOM      5  C   UNL     1       6.702   9.468  -4.820  1.00  0.00     0.009 A 
ATOM      6  C   UNL     1       6.549  10.447  -5.805  1.00  0.00     0.010 A 
ENDROOT
BRANCH   1   7
ATOM      7  C   UNL     1       7.260  12.603  -6.927  1.00  0.00     0.300 C 
BRANCH   7   8
ATOM      8  N   UNL     1       7.773  12.269  -8.359  1.00  0.00    -0.325 N 
ATOM      9  C   UNL     1       8.309  13.529  -9.025  1.00  0.00     0.334 C 
ATOM     10  C   UNL     1       8.885  11.230  -8.284  1.00  0.00     0.334 C 
BRANCH   8  11
ATOM     11  C   UNL     1       6.556  11.714  -9.130  1.00  0.00     0.260 C 
ATOM     12  C   UNL     1       6.354  10.213  -8.998  1.00  0.00     0.071 C 
ENDBRANCH   8  11
ENDBRANCH   7   8
ENDBRANCH   1   7
BRANCH   4  13
ATOM     13  C   UNL     1       7.899   8.514  -2.849  1.00  0.00    -0.010 A 
ATOM     14  C   UNL     1       7.234   8.689  -1.624  1.00  0.00     0.010 A 
ATOM     15  C   UNL     1       8.698   7.352  -3.049  1.00  0.00    -0.009 A 
ATOM     16  C   UNL     1       7.342   7.743  -0.608  1.00  0.00     0.009 A 
ATOM     17  C   UNL     1       9.402   7.103  -4.245  1.00  0.00     0.010 A 
ATOM     18  C   UNL     1       8.804   6.389  -2.008  1.00  0.00    -0.002 A 
ATOM     19  C   UNL     1       8.120   6.596  -0.788  1.00  0.00    -0.017 A 
ATOM     20  C   UNL     1      10.177   5.954  -4.416  1.00  0.00     0.009 A 
ATOM     21  C   UNL     1       9.594   5.215  -2.176  1.00  0.00    -0.002 A 
ATOM     22  C   UNL     1       8.225   5.651   0.233  1.00  0.00     0.009 A 
ATOM     23  C   UNL     1      10.280   5.007  -3.394  1.00  0.00    -0.017 A 
ATOM     24  C   UNL     1       9.700   4.253  -1.134  1.00  0.00    -0.009 A 
ATOM     25  C   UNL     1       9.000   4.503   0.063  1.00  0.00     0.010 A 
ATOM     26  C   UNL     1      11.057   3.859  -3.573  1.00  0.00     0.009 A 
ATOM     27  C   UNL     1      10.497   3.091  -1.333  1.00  0.00    -0.010 A 
ATOM     28  C   UNL     1      11.164   2.915  -2.556  1.00  0.00     0.010 A 
BRANCH  27  29
ATOM     29  C   UNL     1      10.657   2.053  -0.302  1.00  0.00    -0.018 A 
ATOM     30  C   UNL     1      11.273   2.348   0.921  1.00  0.00     0.012 A 
ATOM     31  C   UNL     1      10.204   0.744  -0.525  1.00  0.00     0.012 A 
ATOM     32  C   UNL     1      11.424   1.358   1.895  1.00  0.00     0.047 A 
ATOM     33  C   UNL     1      10.357  -0.246   0.453  1.00  0.00     0.047 A 
ATOM     34  C   UNL     1      10.968   0.058   1.669  1.00  0.00     0.118 A 
BRANCH  34  35
ATOM     35  O   UNL     1      11.178  -0.810   2.703  1.00  0.00    -0.497 OA
ATOM     36  C   UNL     1      10.318  -0.690   3.830  1.00  0.00     0.278 C 
ENDBRANCH  34  35
ENDBRANCH  27  29
ENDBRANCH   4  13
TORSDOF 6
ENDMDL
MODEL 20
REMARK VINA RESULT:   -13.863      3.540     10.795
REMARK INTER + INTRA:         -19.979
REMARK INTER:                 -17.443
REMARK INTRA:                  -2.536
REMARK CONF_INDEPENDENT:        3.580
REMARK UNBOUND:                -2.536
REMARK SMILES CC[N+](C)(C)Cc1ccc(-c2ccc3ccc4c(-c5ccc(OC)cc5)ccc5ccc2c3c54)cc1
REMARK SMILES IDX 7 1 8 2 9 3 10 4 35 5 36 6 6 7 3 8 4 9 5 10 2 11 1 12 11 13
REMARK SMILES IDX 12 14 32 15 13 16 31 17 33 18 14 19 30 20 34 21 15 22 29 23
REMARK SMILES IDX 17 24 16 25 28 26 18 27 27 28 19 29 20 30 26 31 21 32 25 33
REMARK SMILES IDX 22 34 23 35 24 36
REMARK H PARENT
REMARK Flexibility Score: inf
ROOT
ATOM      1  C   UNL     1      11.485   0.863   2.309  1.00  0.00     0.006 A 
ATOM      2  C   UNL     1      10.901   0.309   1.160  1.00  0.00     0.010 A 
ATOM      3  C   UNL     1      10.620   1.108   0.048  1.00  0.00     0.009 A 
ATOM      4  C   UNL     1      10.919   2.476   0.053  1.00  0.00    -0.018 A 
ATOM      5  C   UNL     1      11.517   3.026   1.195  1.00  0.00     0.009 A 
ATOM      6  C   UNL     1      11.801   2.230   2.308  1.00  0.00     0.010 A 
ENDROOT
BRANCH   1   7
ATOM      7  C   UNL     1      11.788   0.001   3.510  1.00  0.00     0.300 C 
BRANCH   7   8
ATOM      8  N   UNL     1      10.838   0.123   4.738  1.00  0.00    -0.325 N 
ATOM      9  C   UNL     1      11.303  -0.810   5.848  1.00  0.00     0.334 C 
ATOM     10  C   UNL     1      10.837   1.556   5.255  1.00  0.00     0.334 C 
BRANCH   8  11
ATOM     11  C   UNL     1       9.434  -0.278   4.234  1.00  0.00     0.260 C 
ATOM     12  C   UNL     1       8.284   0.272   5.062  1.00  0.00     0.071 C 
ENDBRANCH   8  11
ENDBRANCH   7   8
ENDBRANCH   1   7
BRANCH   4  13
ATOM     13  C   UNL     1      10.632   3.314  -1.121  1.00  0.00    -0.010 A 
ATOM     14  C   UNL     1      11.229   2.963  -2.343  1.00  0.00     0.010 A 
ATOM     15  C   UNL     1       9.778   4.453  -1.064  1.00  0.00    -0.009 A 
ATOM     16  C   UNL     1      10.998   3.708  -3.495  1.00  0.00     0.009 A 
ATOM     17  C   UNL     1       9.144   4.877   0.121  1.00  0.00     0.010 A 
ATOM     18  C   UNL     1       9.545   5.211  -2.245  1.00  0.00    -0.002 A 
ATOM     19  C   UNL     1      10.162   4.827  -3.458  1.00  0.00    -0.017 A 
ATOM     20  C   UNL     1       8.311   5.996   0.149  1.00  0.00     0.009 A 
ATOM     21  C   UNL     1       8.696   6.355  -2.223  1.00  0.00    -0.002 A 
ATOM     22  C   UNL     1       9.932   5.572  -4.616  1.00  0.00     0.009 A 
ATOM     23  C   UNL     1       8.079   6.739  -1.011  1.00  0.00    -0.017 A 
ATOM     24  C   UNL     1       8.463   7.112  -3.404  1.00  0.00    -0.009 A 
ATOM     25  C   UNL     1       9.099   6.692  -4.589  1.00  0.00     0.010 A 
ATOM     26  C   UNL     1       7.243   7.860  -0.976  1.00  0.00     0.009 A 
ATOM     27  C   UNL     1       7.610   8.250  -3.349  1.00  0.00    -0.010 A 
ATOM     28  C   UNL     1       7.012   8.603  -2.129  1.00  0.00     0.010 A 
BRANCH  27  29
ATOM     29  C   UNL     1       7.322   9.083  -4.527  1.00  0.00    -0.018 A 
ATOM     30  C   UNL     1       7.674  10.439  -4.547  1.00  0.00     0.012 A 
ATOM     31  C   UNL     1       6.683   8.541  -5.651  1.00  0.00     0.012 A 
ATOM     32  C   UNL     1       7.397  11.227  -5.668  1.00  0.00     0.047 A 
ATOM     33  C   UNL     1       6.407   9.332  -6.773  1.00  0.00     0.047 A 
ATOM     34  C   UNL     1       6.764  10.681  -6.785  1.00  0.00     0.118 A 
BRANCH  34  35
ATOM     35  O   UNL     1       6.554  11.560  -7.810  1.00  0.00    -0.497 OA
ATOM     36  C   UNL     1       7.393  12.707  -7.857  1.00  0.00     0.278 C 
ENDBRANCH  34  35
ENDBRANCH  27  29
ENDBRANCH   4  13
TORSDOF 6
REMARK SMILES CC[N+](C)(C)Cc1ccc(-c2ccc3ccc4c(-c5ccc(OC)cc5)ccc5ccc2c3c54)cc1
REMARK SMILES IDX 7 1 8 2 9 3 10 4 35 5 36 6 6 7 3 8 4 9 5 10 2 11 1 12 11 13
REMARK SMILES IDX 12 14 32 15 13 16 31 17 33 18 14 19 30 20 34 21 15 22 29 23
REMARK SMILES IDX 17 24 16 25 28 26 18 27 27 28 19 29 20 30 26 31 21 32 25 33
REMARK SMILES IDX 22 34 23 35 24 36
REMARK H PARENT
REMARK Flexibility Score: inf
ROOT
ATOM      1  C   UNL     1       1.774   9.331   0.470  1.00  0.00     0.006 A 
ATOM      2  C   UNL     1       3.160   9.120   0.520  1.00  0.00     0.010 A 
ATOM      3  C   UNL     1       3.802   8.369  -0.469  1.00  0.00     0.009 A 
ATOM      4  C   UNL     1       3.078   7.816  -1.534  1.00  0.00    -0.018 A 
ATOM      5  C   UNL     1       1.697   8.042  -1.591  1.00  0.00     0.009 A 
ATOM      6  C   UNL     1       1.052   8.793  -0.605  1.00  0.00     0.010 A 
ENDROOT
BRANCH   1   7
ATOM      7  C   UNL     1       1.080  10.142   1.538  1.00  0.00     0.300 C 
BRANCH   7   8
ATOM      8  N   UNL     1       0.448   9.364   2.730  1.00  0.00    -0.325 N 
ATOM      9  C   UNL     1       0.100  10.332   3.853  1.00  0.00     0.334 C 
ATOM     10  C   UNL     1      -0.818   8.651   2.272  1.00  0.00     0.334 C 
BRANCH   8  11
ATOM     11  C   UNL     1       1.515   8.347   3.190  1.00  0.00     0.260 C 
ATOM     12  C   UNL     1       1.325   6.941   2.643  1.00  0.00     0.071 C 
ENDBRANCH   8  11
ENDBRANCH   7   8
ENDBRANCH   1   7
BRANCH   4  13
ATOM     13  C   UNL     1       3.756   7.034  -2.579  1.00  0.00    -0.010 A 
ATOM     14  C   UNL     1       3.564   7.417  -3.916  1.00  0.00     0.010 A 
ATOM     15  C   UNL     1       4.591   5.918  -2.286  1.00  0.00    -0.009 A 
ATOM     16  C   UNL     1       4.179   6.725  -4.956  1.00  0.00     0.009 A 
ATOM     17  C   UNL     1       4.832   5.465  -0.973  1.00  0.00     0.010 A 
ATOM     18  C   UNL     1       5.217   5.215  -3.351  1.00  0.00    -0.002 A 
ATOM     19  C   UNL     1       5.003   5.629  -4.687  1.00  0.00    -0.017 A 
ATOM     20  C   UNL     1       5.657   4.369  -0.713  1.00  0.00     0.009 A 
ATOM     21  C   UNL     1       6.059   4.095  -3.093  1.00  0.00    -0.002 A 
ATOM     22  C   UNL     1       5.618   4.938  -5.732  1.00  0.00     0.009 A 
ATOM     23  C   UNL     1       6.274   3.680  -1.759  1.00  0.00    -0.017 A 
ATOM     24  C   UNL     1       6.684   3.393  -4.160  1.00  0.00    -0.009 A 
ATOM     25  C   UNL     1       6.441   3.842  -5.473  1.00  0.00     0.010 A 
ATOM     26  C   UNL     1       7.098   2.583  -1.492  1.00  0.00     0.009 A 
ATOM     27  C   UNL     1       7.520   2.278  -3.868  1.00  0.00    -0.010 A 
ATOM     28  C   UNL     1       7.712   1.893  -2.532  1.00  0.00     0.010 A 
BRANCH  27  29
ATOM     29  C   UNL     1       8.199   1.500  -4.917  1.00  0.00    -0.018 A 
ATOM     30  C   UNL     1       9.362   1.985  -5.528  1.00  0.00     0.012 A 
ATOM     31  C   UNL     1       7.692   0.260  -5.332  1.00  0.00     0.012 A 
ATOM     32  C   UNL     1      10.002   1.243  -6.524  1.00  0.00     0.047 A 
ATOM     33  C   UNL     1       8.335  -0.482  -6.331  1.00  0.00     0.047 A 
ATOM     34  C   UNL     1       9.495   0.008  -6.931  1.00  0.00     0.118 A 
BRANCH  34  35
ATOM     35  O   UNL     1      10.217  -0.612  -7.912  1.00  0.00    -0.497 OA
ATOM     36  C   UNL     1      11.089   0.204  -8.684  1.00  0.00     0.278 C 
ENDBRANCH  34  35
ENDBRANCH  27  29
ENDBRANCH   4  13
TORSDOF 6
ENDMDL
