@<TRIPOS>MOLECULE
UNL
   73    72     1     0     0
SMALL
bcc


@<TRIPOS>ATOM
      1 O1          -2.4320     2.0080    -2.7840 oh         1 UNL      -0.628800
      2 C1          -2.7900     2.9790    -3.7660 c3         1 UNL       0.106400
      3 C2          -4.2610     3.3770    -3.6360 c3         1 UNL       0.120400
      4 O2          -5.1380     2.3930    -4.1960 os         1 UNL      -0.420600
      5 C3          -5.3920     1.2790    -3.3380 c3         1 UNL       0.104400
      6 C4          -4.8240    -0.0010    -3.9510 c3         1 UNL       0.082400
      7 O3          -5.2540    -1.2000    -3.3050 os         1 UNL      -0.417600
      8 C5          -4.8320    -1.3670    -1.9520 c3         1 UNL       0.123400
      9 C6          -3.3260    -1.5830    -1.8040 c3         1 UNL       0.094400
     10 O4          -3.0290    -1.8850    -0.4400 os         1 UNL      -0.422600
     11 C7          -1.6290    -1.9290    -0.1680 c3         1 UNL       0.123400
     12 C8          -0.9950    -3.2570    -0.5750 c3         1 UNL       0.094400
     13 O5           0.4000    -3.2300    -0.2630 os         1 UNL      -0.422600
     14 C9           1.0450    -4.4520    -0.6330 c3         1 UNL       0.099400
     15 C10          2.5150    -4.4370    -0.1940 c3         1 UNL       0.120400
     16 O6           3.2860    -3.3480    -0.7050 os         1 UNL      -0.402600
     17 C11          3.3870    -3.3040    -2.1250 c3         1 UNL       0.087400
     18 C12          4.3780    -2.2120    -2.5520 c3         1 UNL       0.129400
     19 O7           4.1820    -0.9240    -1.9620 os         1 UNL      -0.394600
     20 C13          2.8540    -0.4200    -2.0440 c3         1 UNL       0.091400
     21 C14          2.7780     0.9800    -1.4210 c3         1 UNL       0.132400
     22 O8           3.2420     1.1250    -0.0760 os         1 UNL      -0.415600
     23 C15          2.9010     0.0940     0.8570 c3         1 UNL       0.083400
     24 C16          1.3990    -0.0440     1.1250 c3         1 UNL       0.088400
     25 O9           0.8880     0.9100     2.0630 os         1 UNL      -0.437600
     26 C17          0.8960     2.2570     1.5800 c3         1 UNL       0.088400
     27 C18          0.0670     3.1360     2.5230 c3         1 UNL       0.121400
     28 O10          0.7880     3.5670     3.6810 os         1 UNL      -0.435600
     29 C19          1.1120     2.5020     4.5720 c3         1 UNL       0.146600
     30 C20          1.4890     3.0390     5.9250 c2         1 UNL      -0.182200
     31 C21          1.5360     4.3280     6.2910 c2         1 UNL      -0.201000
     32 H1          -1.4830     1.8300    -2.9070 ho         1 UNL       0.422000
     33 H2          -2.1530     3.8560    -3.6110 h1         1 UNL       0.036200
     34 H3          -2.5900     2.5520    -4.7540 h1         1 UNL       0.036200
     35 H4          -4.4230     4.2890    -4.2190 h1         1 UNL       0.056700
     36 H5          -4.5410     3.5890    -2.5980 h1         1 UNL       0.056700
     37 H6          -5.0120     1.4450    -2.3250 h1         1 UNL       0.052700
     38 H7          -6.4800     1.1790    -3.2470 h1         1 UNL       0.052700
     39 H8          -3.7310     0.0310    -4.0070 h1         1 UNL       0.066700
     40 H9          -5.1600    -0.0690    -4.9920 h1         1 UNL       0.066700
     41 H10         -5.3520    -2.2510    -1.5650 h1         1 UNL       0.058200
     42 H11         -5.1740    -0.5350    -1.3280 h1         1 UNL       0.058200
     43 H12         -3.0050    -2.4040    -2.4530 h1         1 UNL       0.042200
     44 H13         -2.7860    -0.6810    -2.1070 h1         1 UNL       0.042200
     45 H14         -1.1160    -1.0850    -0.6430 h1         1 UNL       0.069700
     46 H15         -1.5000    -1.7910     0.9120 h1         1 UNL       0.069700
     47 H16         -1.1250    -3.4330    -1.6470 h1         1 UNL       0.034200
     48 H17         -1.4840    -4.0780    -0.0400 h1         1 UNL       0.034200
     49 H18          0.5390    -5.2950    -0.1470 h1         1 UNL       0.033200
     50 H19          0.9670    -4.5800    -1.7180 h1         1 UNL       0.033200
     51 H20          2.5550    -4.3450     0.8960 h1         1 UNL       0.065700
     52 H21          3.0030    -5.3790    -0.4640 h1         1 UNL       0.065700
     53 H22          3.7250    -4.2730    -2.5080 h1         1 UNL       0.030200
     54 H23          2.4040    -3.0870    -2.5540 h1         1 UNL       0.030200
     55 H24          5.3890    -2.5210    -2.2650 h1         1 UNL       0.057200
     56 H25          4.3680    -2.1030    -3.6420 h1         1 UNL       0.057200
     57 H26          2.5470    -0.3680    -3.0950 h1         1 UNL       0.032200
     58 H27          2.1650    -1.0830    -1.5160 h1         1 UNL       0.032200
     59 H28          3.3890     1.6640    -2.0190 h1         1 UNL       0.049700
     60 H29          1.7480     1.3490    -1.4720 h1         1 UNL       0.049700
     61 H30          3.4110     0.3480     1.7930 h1         1 UNL       0.079700
     62 H31          3.3200    -0.8570     0.5170 h1         1 UNL       0.079700
     63 H32          1.2180    -1.0260     1.5760 h1         1 UNL       0.054700
     64 H33          0.8050     0.0110     0.2090 h1         1 UNL       0.054700
     65 H34          0.4420     2.2810     0.5830 h1         1 UNL       0.049700
     66 H35          1.9250     2.6260     1.5370 h1         1 UNL       0.049700
     67 H36         -0.8530     2.6310     2.8350 h1         1 UNL       0.062200
     68 H37         -0.2150     4.0500     1.9910 h1         1 UNL       0.062200
     69 H38          0.2570     1.8290     4.6940 h1         1 UNL       0.052700
     70 H39          1.9630     1.9420     4.1720 h1         1 UNL       0.052700
     71 H40          1.7500     2.2830     6.6630 ha         1 UNL       0.122000
     72 H41          1.8230     4.6130     7.2960 ha         1 UNL       0.117000
     73 H42          1.2880     5.1220     5.5920 ha         1 UNL       0.117000
@<TRIPOS>BOND
     1     1     2 1   
     2     1    32 1   
     3     2     3 1   
     4     2    33 1   
     5     2    34 1   
     6     3     4 1   
     7     3    35 1   
     8     3    36 1   
     9     4     5 1   
    10     5     6 1   
    11     5    37 1   
    12     5    38 1   
    13     6     7 1   
    14     6    39 1   
    15     6    40 1   
    16     7     8 1   
    17     8     9 1   
    18     8    41 1   
    19     8    42 1   
    20     9    10 1   
    21     9    43 1   
    22     9    44 1   
    23    10    11 1   
    24    11    12 1   
    25    11    45 1   
    26    11    46 1   
    27    12    13 1   
    28    12    47 1   
    29    12    48 1   
    30    13    14 1   
    31    14    15 1   
    32    14    49 1   
    33    14    50 1   
    34    15    16 1   
    35    15    51 1   
    36    15    52 1   
    37    16    17 1   
    38    17    18 1   
    39    17    53 1   
    40    17    54 1   
    41    18    19 1   
    42    18    55 1   
    43    18    56 1   
    44    19    20 1   
    45    20    21 1   
    46    20    57 1   
    47    20    58 1   
    48    21    22 1   
    49    21    59 1   
    50    21    60 1   
    51    22    23 1   
    52    23    24 1   
    53    23    61 1   
    54    23    62 1   
    55    24    25 1   
    56    24    63 1   
    57    24    64 1   
    58    25    26 1   
    59    26    27 1   
    60    26    65 1   
    61    26    66 1   
    62    27    28 1   
    63    27    67 1   
    64    27    68 1   
    65    28    29 1   
    66    29    30 1   
    67    29    69 1   
    68    29    70 1   
    69    30    31 2   
    70    30    71 1   
    71    31    72 1   
    72    31    73 1   
@<TRIPOS>SUBSTRUCTURE
     1 UNL         1 TEMP              0 ****  ****    0 ROOT
