@<TRIPOS>MOLECULE
UNL
   73    72     1     0     0
SMALL
bcc


@<TRIPOS>ATOM
      1 O1           2.6810     3.8630    -0.4390 oh         1 UNL      -0.611800
      2 C1           1.6760     2.8540    -0.3190 c3         1 UNL       0.091400
      3 C2           1.3490     2.2490    -1.6830 c3         1 UNL       0.122400
      4 O2           0.7090     3.2170    -2.5250 os         1 UNL      -0.422600
      5 C3          -0.6450     2.9020    -2.8590 c3         1 UNL       0.119400
      6 C4          -1.6170     3.1820    -1.7110 c3         1 UNL       0.096400
      7 O3          -1.5950     2.0990    -0.7760 os         1 UNL      -0.435600
      8 C5          -2.4340     2.3620     0.3530 c3         1 UNL       0.125400
      9 C6          -2.3770     1.1880     1.3290 c3         1 UNL       0.118400
     10 O4          -3.1760     0.1060     0.8380 os         1 UNL      -0.433600
     11 C7          -3.2040    -0.9830     1.7690 c3         1 UNL       0.121400
     12 C8          -3.8900    -2.1880     1.1270 c3         1 UNL       0.122400
     13 O5          -2.9670    -2.8340     0.2450 os         1 UNL      -0.425600
     14 C9          -3.5600    -3.8780    -0.5320 c3         1 UNL       0.093400
     15 C10         -4.3080    -3.3670    -1.7720 c3         1 UNL       0.101400
     16 O6          -3.4040    -2.9830    -2.8120 os         1 UNL      -0.422600
     17 C11         -3.0050    -1.6100    -2.7200 c3         1 UNL       0.085400
     18 C12         -1.7330    -1.3900    -3.5360 c3         1 UNL       0.127400
     19 O7          -0.6380    -1.9930    -2.8430 os         1 UNL      -0.427600
     20 C13          0.6310    -1.5130    -3.2820 c3         1 UNL       0.090400
     21 C14          1.7260    -2.1230    -2.4030 c3         1 UNL       0.120400
     22 O8           1.8310    -1.5190    -1.1050 os         1 UNL      -0.428600
     23 C15          0.6720    -1.7360    -0.2830 c3         1 UNL       0.102400
     24 C16          1.0490    -1.5320     1.1840 c3         1 UNL       0.086400
     25 O9           1.2020    -0.1350     1.4650 os         1 UNL      -0.427600
     26 C17          1.6660     0.1150     2.7890 c3         1 UNL       0.128400
     27 C18          3.1880     0.0470     2.8820 c3         1 UNL       0.086400
     28 O10          3.5840     0.3640     4.2180 os         1 UNL      -0.420600
     29 C19          5.0020     0.3910     4.3720 c3         1 UNL       0.156600
     30 C20          5.5750     1.7650     4.1670 c2         1 UNL      -0.198200
     31 C21          4.8920     2.9020     3.9710 c2         1 UNL      -0.223000
     32 H1           2.8260     4.2180     0.4530 ho         1 UNL       0.404000
     33 H2           2.0650     2.0840     0.3500 h1         1 UNL       0.035700
     34 H3           0.7910     3.3160     0.1300 h1         1 UNL       0.035700
     35 H4           2.2790     1.9640    -2.1870 h1         1 UNL       0.067200
     36 H5           0.7400     1.3480    -1.5650 h1         1 UNL       0.067200
     37 H6          -0.7110     1.8680    -3.2110 h1         1 UNL       0.069200
     38 H7          -0.9050     3.5570    -3.6970 h1         1 UNL       0.069200
     39 H8          -2.6330     3.2680    -2.1100 h1         1 UNL       0.037200
     40 H9          -1.3400     4.1120    -1.2030 h1         1 UNL       0.037200
     41 H10         -3.4620     2.5230     0.0090 h1         1 UNL       0.039700
     42 H11         -2.0680     3.2650     0.8550 h1         1 UNL       0.039700
     43 H12         -2.7740     1.5050     2.2990 h1         1 UNL       0.054200
     44 H13         -1.3450     0.8450     1.4480 h1         1 UNL       0.054200
     45 H14         -2.1810    -1.2430     2.0650 h1         1 UNL       0.052700
     46 H15         -3.7710    -0.6630     2.6500 h1         1 UNL       0.052700
     47 H16         -4.1760    -2.9040     1.9050 h1         1 UNL       0.040700
     48 H17         -4.7800    -1.8660     0.5790 h1         1 UNL       0.040700
     49 H18         -2.7390    -4.5290    -0.8530 h1         1 UNL       0.058700
     50 H19         -4.2290    -4.4700     0.1030 h1         1 UNL       0.058700
     51 H20         -4.9960    -2.5460    -1.5450 h1         1 UNL       0.055200
     52 H21         -4.9000    -4.1940    -2.1770 h1         1 UNL       0.055200
     53 H22         -2.8200    -1.3230    -1.6820 h1         1 UNL       0.048700
     54 H23         -3.8170    -0.9960    -3.1220 h1         1 UNL       0.048700
     55 H24         -1.5600    -0.3140    -3.6440 h1         1 UNL       0.058200
     56 H25         -1.8140    -1.8510    -4.5250 h1         1 UNL       0.058200
     57 H26          0.7770    -1.8190    -4.3240 h1         1 UNL       0.043200
     58 H27          0.6600    -0.4210    -3.2110 h1         1 UNL       0.043200
     59 H28          1.5830    -3.2030    -2.2820 h1         1 UNL       0.061200
     60 H29          2.6940    -1.9650    -2.8880 h1         1 UNL       0.061200
     61 H30         -0.1040    -1.0200    -0.5700 h1         1 UNL       0.077700
     62 H31          0.3120    -2.7630    -0.4130 h1         1 UNL       0.077700
     63 H32          1.9830    -2.0600     1.4020 h1         1 UNL       0.046700
     64 H33          0.2510    -1.9260     1.8220 h1         1 UNL       0.046700
     65 H34          1.1900    -0.5600     3.5100 h1         1 UNL       0.061700
     66 H35          1.3420     1.1260     3.0610 h1         1 UNL       0.061700
     67 H36          3.5420    -0.9570     2.6260 h1         1 UNL       0.042200
     68 H37          3.6340     0.7500     2.1680 h1         1 UNL       0.042200
     69 H38          5.4850    -0.3300     3.7020 h1         1 UNL       0.056200
     70 H39          5.2210     0.0790     5.3980 h1         1 UNL       0.056200
     71 H40          6.6620     1.8180     4.1950 ha         1 UNL       0.124000
     72 H41          5.4120     3.8460     3.8380 ha         1 UNL       0.119000
     73 H42          3.8070     2.9170     3.9480 ha         1 UNL       0.119000
@<TRIPOS>BOND
     1     1     2 1   
     2     1    32 1   
     3     2     3 1   
     4     2    33 1   
     5     2    34 1   
     6     3     4 1   
     7     3    35 1   
     8     3    36 1   
     9     4     5 1   
    10     5     6 1   
    11     5    37 1   
    12     5    38 1   
    13     6     7 1   
    14     6    39 1   
    15     6    40 1   
    16     7     8 1   
    17     8     9 1   
    18     8    41 1   
    19     8    42 1   
    20     9    10 1   
    21     9    43 1   
    22     9    44 1   
    23    10    11 1   
    24    11    12 1   
    25    11    45 1   
    26    11    46 1   
    27    12    13 1   
    28    12    47 1   
    29    12    48 1   
    30    13    14 1   
    31    14    15 1   
    32    14    49 1   
    33    14    50 1   
    34    15    16 1   
    35    15    51 1   
    36    15    52 1   
    37    16    17 1   
    38    17    18 1   
    39    17    53 1   
    40    17    54 1   
    41    18    19 1   
    42    18    55 1   
    43    18    56 1   
    44    19    20 1   
    45    20    21 1   
    46    20    57 1   
    47    20    58 1   
    48    21    22 1   
    49    21    59 1   
    50    21    60 1   
    51    22    23 1   
    52    23    24 1   
    53    23    61 1   
    54    23    62 1   
    55    24    25 1   
    56    24    63 1   
    57    24    64 1   
    58    25    26 1   
    59    26    27 1   
    60    26    65 1   
    61    26    66 1   
    62    27    28 1   
    63    27    67 1   
    64    27    68 1   
    65    28    29 1   
    66    29    30 1   
    67    29    69 1   
    68    29    70 1   
    69    30    31 2   
    70    30    71 1   
    71    31    72 1   
    72    31    73 1   
@<TRIPOS>SUBSTRUCTURE
     1 UNL         1 TEMP              0 ****  ****    0 ROOT
