@<TRIPOS>MOLECULE
UNL
   73    72     1     0     0
SMALL
bcc


@<TRIPOS>ATOM
      1 O1          -1.7520    -3.3110     2.7160 oh         1 UNL      -0.611800
      2 C1          -2.5640    -2.1950     2.3600 c3         1 UNL       0.097400
      3 C2          -1.9980    -1.4890     1.1300 c3         1 UNL       0.086400
      4 O2          -2.7850    -0.3650     0.7460 os         1 UNL      -0.424600
      5 C3          -3.9050    -0.7130    -0.0770 c3         1 UNL       0.084400
      6 C4          -4.5600     0.5690    -0.6050 c3         1 UNL       0.123400
      7 O3          -3.9020     1.1150    -1.7560 os         1 UNL      -0.423600
      8 C5          -2.5650     1.5450    -1.4980 c3         1 UNL       0.091400
      9 C6          -2.0530     2.3520    -2.6890 c3         1 UNL       0.122400
     10 O4          -0.6550     2.6280    -2.5810 os         1 UNL      -0.430600
     11 C7          -0.3640     3.7590    -1.7560 c3         1 UNL       0.086400
     12 C8           1.1550     3.9350    -1.6620 c3         1 UNL       0.121400
     13 O5           1.7890     2.8850    -0.9210 os         1 UNL      -0.424600
     14 C9           1.6920     3.0530     0.4940 c3         1 UNL       0.120400
     15 C10          2.5100     1.9630     1.1760 c3         1 UNL       0.123400
     16 O6           2.3690     2.0580     2.5950 os         1 UNL      -0.428600
     17 C11          3.0580     0.9960     3.2650 c3         1 UNL       0.130400
     18 C12          2.1780    -0.2480     3.4080 c3         1 UNL       0.087400
     19 O7           3.0140    -1.3800     3.6250 os         1 UNL      -0.428600
     20 C13          2.3070    -2.6170     3.7750 c3         1 UNL       0.125400
     21 C14          1.6010    -3.0890     2.4990 c3         1 UNL       0.080400
     22 O8           2.5500    -3.2540     1.4410 os         1 UNL      -0.423600
     23 C15          1.9410    -3.2500     0.1480 c3         1 UNL       0.123400
     24 C16          1.8480    -1.8290    -0.4020 c3         1 UNL       0.095400
     25 O9           1.1330    -1.8250    -1.6350 os         1 UNL      -0.452600
     26 C17          1.1050    -0.5130    -2.2160 c3         1 UNL       0.088400
     27 C18          0.3220    -0.5430    -3.5300 c3         1 UNL       0.115400
     28 O10          0.9410    -1.3440    -4.5420 os         1 UNL      -0.418600
     29 C19          2.0490    -0.7000    -5.1610 c3         1 UNL       0.144600
     30 C20          2.5190    -1.5860    -6.2690 c2         1 UNL      -0.159200
     31 C21          3.7730    -2.0410    -6.3970 c2         1 UNL      -0.229000
     32 H1          -1.9480    -4.0250     2.0830 ho         1 UNL       0.421000
     33 H2          -3.5890    -2.5420     2.1980 h1         1 UNL       0.050200
     34 H3          -2.5920    -1.5050     3.2100 h1         1 UNL       0.050200
     35 H4          -0.9990    -1.1100     1.3730 h1         1 UNL       0.055700
     36 H5          -1.8600    -2.1870     0.2950 h1         1 UNL       0.055700
     37 H6          -3.5730    -1.3390    -0.9140 h1         1 UNL       0.048200
     38 H7          -4.6260    -1.2640     0.5350 h1         1 UNL       0.048200
     39 H8          -5.5800     0.3360    -0.9280 h1         1 UNL       0.062700
     40 H9          -4.6200     1.3390     0.1730 h1         1 UNL       0.062700
     41 H10         -1.9120     0.6760    -1.3580 h1         1 UNL       0.044200
     42 H11         -2.5310     2.1520    -0.5860 h1         1 UNL       0.044200
     43 H12         -2.6290     3.2760    -2.8220 h1         1 UNL       0.064200
     44 H13         -2.1990     1.7670    -3.6040 h1         1 UNL       0.064200
     45 H14         -0.7990     4.6510    -2.2180 h1         1 UNL       0.042700
     46 H15         -0.8010     3.6190    -0.7650 h1         1 UNL       0.042700
     47 H16          1.4110     4.9050    -1.2240 h1         1 UNL       0.059700
     48 H17          1.5820     3.9000    -2.6690 h1         1 UNL       0.059700
     49 H18          0.6470     2.9860     0.8160 h1         1 UNL       0.042200
     50 H19          2.0750     4.0370     0.7880 h1         1 UNL       0.042200
     51 H20          2.1800     0.9830     0.8190 h1         1 UNL       0.054700
     52 H21          3.5670     2.0720     0.9010 h1         1 UNL       0.054700
     53 H22          3.3270     1.3550     4.2640 h1         1 UNL       0.059200
     54 H23          4.0030     0.7660     2.7570 h1         1 UNL       0.059200
     55 H24          1.4900    -0.1210     4.2510 h1         1 UNL       0.041700
     56 H25          1.5740    -0.3840     2.5100 h1         1 UNL       0.041700
     57 H26          1.5940    -2.5310     4.6010 h1         1 UNL       0.061700
     58 H27          3.0590    -3.3600     4.0590 h1         1 UNL       0.061700
     59 H28          1.1200    -4.0560     2.6820 h1         1 UNL       0.052700
     60 H29          0.8280    -2.3740     2.2100 h1         1 UNL       0.052700
     61 H30          0.9600    -3.7410     0.1700 h1         1 UNL       0.065200
     62 H31          2.5720    -3.8490    -0.5190 h1         1 UNL       0.065200
     63 H32          2.8590    -1.4260    -0.5450 h1         1 UNL       0.043700
     64 H33          1.3300    -1.1810     0.3100 h1         1 UNL       0.043700
     65 H34          0.6140     0.1700    -1.5150 h1         1 UNL       0.049700
     66 H35          2.1320    -0.1740    -2.3780 h1         1 UNL       0.049700
     67 H36          0.1650     0.4690    -3.9150 h1         1 UNL       0.064700
     68 H37         -0.6620    -0.9870    -3.3450 h1         1 UNL       0.064700
     69 H38          1.7340     0.2610    -5.5820 h1         1 UNL       0.045700
     70 H39          2.8450    -0.5270    -4.4310 h1         1 UNL       0.045700
     71 H40          1.7710    -1.8720    -7.0040 ha         1 UNL       0.141000
     72 H41          4.0460    -2.6910    -7.2230 ha         1 UNL       0.112000
     73 H42          4.5470    -1.7890    -5.6790 ha         1 UNL       0.112000
@<TRIPOS>BOND
     1     1     2 1   
     2     1    32 1   
     3     2     3 1   
     4     2    33 1   
     5     2    34 1   
     6     3     4 1   
     7     3    35 1   
     8     3    36 1   
     9     4     5 1   
    10     5     6 1   
    11     5    37 1   
    12     5    38 1   
    13     6     7 1   
    14     6    39 1   
    15     6    40 1   
    16     7     8 1   
    17     8     9 1   
    18     8    41 1   
    19     8    42 1   
    20     9    10 1   
    21     9    43 1   
    22     9    44 1   
    23    10    11 1   
    24    11    12 1   
    25    11    45 1   
    26    11    46 1   
    27    12    13 1   
    28    12    47 1   
    29    12    48 1   
    30    13    14 1   
    31    14    15 1   
    32    14    49 1   
    33    14    50 1   
    34    15    16 1   
    35    15    51 1   
    36    15    52 1   
    37    16    17 1   
    38    17    18 1   
    39    17    53 1   
    40    17    54 1   
    41    18    19 1   
    42    18    55 1   
    43    18    56 1   
    44    19    20 1   
    45    20    21 1   
    46    20    57 1   
    47    20    58 1   
    48    21    22 1   
    49    21    59 1   
    50    21    60 1   
    51    22    23 1   
    52    23    24 1   
    53    23    61 1   
    54    23    62 1   
    55    24    25 1   
    56    24    63 1   
    57    24    64 1   
    58    25    26 1   
    59    26    27 1   
    60    26    65 1   
    61    26    66 1   
    62    27    28 1   
    63    27    67 1   
    64    27    68 1   
    65    28    29 1   
    66    29    30 1   
    67    29    69 1   
    68    29    70 1   
    69    30    31 2   
    70    30    71 1   
    71    31    72 1   
    72    31    73 1   
@<TRIPOS>SUBSTRUCTURE
     1 UNL         1 TEMP              0 ****  ****    0 ROOT
