@<TRIPOS>MOLECULE
UNL
   73    72     1     0     0
SMALL
bcc


@<TRIPOS>ATOM
      1 O1           1.8600    -2.9190    -4.8460 oh         1 UNL      -0.601800
      2 C1           1.8850    -1.5860    -4.3360 c3         1 UNL       0.120400
      3 C2           3.2100    -1.3270    -3.6250 c3         1 UNL       0.070400
      4 O2           3.3570    -2.2770    -2.5640 os         1 UNL      -0.428600
      5 C3           3.3670    -1.6990    -1.2550 c3         1 UNL       0.133400
      6 C4           2.0340    -1.0710    -0.8390 c3         1 UNL       0.089400
      7 O3           1.0120    -2.0720    -0.8150 os         1 UNL      -0.425600
      8 C5          -0.2310    -1.5260    -0.3730 c3         1 UNL       0.096400
      9 C6          -1.3260    -2.5870    -0.4820 c3         1 UNL       0.126400
     10 O4          -2.5440    -2.1910     0.1530 os         1 UNL      -0.428600
     11 C7          -3.2680    -1.1990    -0.5830 c3         1 UNL       0.089400
     12 C8          -4.5370    -0.8080     0.1790 c3         1 UNL       0.129400
     13 O5          -4.2820     0.1350     1.2290 os         1 UNL      -0.423600
     14 C9          -3.6900    -0.4590     2.3880 c3         1 UNL       0.089400
     15 C10         -3.6260     0.5680     3.5250 c3         1 UNL       0.125400
     16 O6          -2.7520     1.6770     3.2880 os         1 UNL      -0.428600
     17 C11         -1.3870     1.3060     3.1130 c3         1 UNL       0.120400
     18 C12         -0.4920     2.5090     3.3980 c3         1 UNL       0.124400
     19 O7           0.8690     2.1390     3.1820 os         1 UNL      -0.435600
     20 C13          1.7780     3.1530     3.6270 c3         1 UNL       0.088400
     21 C14          3.1890     2.8120     3.1350 c3         1 UNL       0.130400
     22 O8           3.4710     3.2780     1.8070 os         1 UNL      -0.426600
     23 C15          2.5740     2.7650     0.8240 c3         1 UNL       0.118400
     24 C16          3.1160     3.0530    -0.5720 c3         1 UNL       0.111400
     25 O9           2.1130     2.7090    -1.5250 os         1 UNL      -0.434600
     26 C17          2.5550     2.8900    -2.8720 c3         1 UNL       0.124400
     27 C18          1.3500     2.7880    -3.8080 c3         1 UNL       0.121400
     28 O10          0.8070     1.4610    -3.7590 os         1 UNL      -0.436600
     29 C19         -0.4750     1.3810    -4.3770 c3         1 UNL       0.157600
     30 C20         -1.6030     1.7060    -3.4370 c2         1 UNL      -0.225200
     31 C21         -1.5100     2.0100    -2.1350 c2         1 UNL      -0.206000
     32 H1           2.1950    -3.4750    -4.1130 ho         1 UNL       0.416000
     33 H2           1.0420    -1.4800    -3.6470 h1         1 UNL       0.044200
     34 H3           1.7510    -0.8970    -5.1740 h1         1 UNL       0.044200
     35 H4           4.0390    -1.5040    -4.3180 h1         1 UNL       0.058700
     36 H5           3.2760    -0.2940    -3.2700 h1         1 UNL       0.058700
     37 H6           4.1770    -0.9640    -1.1920 h1         1 UNL       0.058700
     38 H7           3.6050    -2.5170    -0.5650 h1         1 UNL       0.058700
     39 H8           1.7410    -0.2780    -1.5350 h1         1 UNL       0.048200
     40 H9           2.1390    -0.6400     0.1620 h1         1 UNL       0.048200
     41 H10         -0.1390    -1.1870     0.6660 h1         1 UNL       0.036700
     42 H11         -0.4850    -0.6570    -0.9890 h1         1 UNL       0.036700
     43 H12         -0.9870    -3.5020     0.0170 h1         1 UNL       0.060700
     44 H13         -1.5070    -2.8590    -1.5280 h1         1 UNL       0.060700
     45 H14         -2.6460    -0.3130    -0.7260 h1         1 UNL       0.043200
     46 H15         -3.5420    -1.6220    -1.5560 h1         1 UNL       0.043200
     47 H16         -5.0580    -1.6860     0.5800 h1         1 UNL       0.061200
     48 H17         -5.2160    -0.3020    -0.5170 h1         1 UNL       0.061200
     49 H18         -4.3050    -1.3050     2.7130 h1         1 UNL       0.046200
     50 H19         -2.6870    -0.8170     2.1490 h1         1 UNL       0.046200
     51 H20         -4.6220     0.9940     3.6820 h1         1 UNL       0.062200
     52 H21         -3.3240     0.0780     4.4570 h1         1 UNL       0.062200
     53 H22         -1.1120     0.4840     3.7860 h1         1 UNL       0.043200
     54 H23         -1.2280     0.9650     2.0830 h1         1 UNL       0.043200
     55 H24         -0.6390     2.8410     4.4330 h1         1 UNL       0.044200
     56 H25         -0.7580     3.3410     2.7360 h1         1 UNL       0.044200
     57 H26          1.7620     3.1570     4.7220 h1         1 UNL       0.049200
     58 H27          1.4650     4.1330     3.2500 h1         1 UNL       0.049200
     59 H28          3.9190     3.3070     3.7830 h1         1 UNL       0.061700
     60 H29          3.3770     1.7330     3.1750 h1         1 UNL       0.061700
     61 H30          1.5940     3.2430     0.9280 h1         1 UNL       0.060700
     62 H31          2.4390     1.6850     0.9470 h1         1 UNL       0.060700
     63 H32          4.0270     2.4690    -0.7490 h1         1 UNL       0.042700
     64 H33          3.3690     4.1160    -0.6640 h1         1 UNL       0.042700
     65 H34          3.0170     3.8780    -2.9830 h1         1 UNL       0.041700
     66 H35          3.2910     2.1130    -3.1040 h1         1 UNL       0.041700
     67 H36          1.6600     2.9990    -4.8370 h1         1 UNL       0.047700
     68 H37          0.5930     3.5180    -3.5010 h1         1 UNL       0.047700
     69 H38         -0.5160     2.0220    -5.2660 h1         1 UNL       0.053200
     70 H39         -0.6050     0.3480    -4.7160 h1         1 UNL       0.053200
     71 H40         -2.5940     1.6840    -3.8870 ha         1 UNL       0.127000
     72 H41         -2.3960     2.2330    -1.5460 ha         1 UNL       0.132000
     73 H42         -0.5520     2.0430    -1.6220 ha         1 UNL       0.132000
@<TRIPOS>BOND
     1     1     2 1   
     2     1    32 1   
     3     2     3 1   
     4     2    33 1   
     5     2    34 1   
     6     3     4 1   
     7     3    35 1   
     8     3    36 1   
     9     4     5 1   
    10     5     6 1   
    11     5    37 1   
    12     5    38 1   
    13     6     7 1   
    14     6    39 1   
    15     6    40 1   
    16     7     8 1   
    17     8     9 1   
    18     8    41 1   
    19     8    42 1   
    20     9    10 1   
    21     9    43 1   
    22     9    44 1   
    23    10    11 1   
    24    11    12 1   
    25    11    45 1   
    26    11    46 1   
    27    12    13 1   
    28    12    47 1   
    29    12    48 1   
    30    13    14 1   
    31    14    15 1   
    32    14    49 1   
    33    14    50 1   
    34    15    16 1   
    35    15    51 1   
    36    15    52 1   
    37    16    17 1   
    38    17    18 1   
    39    17    53 1   
    40    17    54 1   
    41    18    19 1   
    42    18    55 1   
    43    18    56 1   
    44    19    20 1   
    45    20    21 1   
    46    20    57 1   
    47    20    58 1   
    48    21    22 1   
    49    21    59 1   
    50    21    60 1   
    51    22    23 1   
    52    23    24 1   
    53    23    61 1   
    54    23    62 1   
    55    24    25 1   
    56    24    63 1   
    57    24    64 1   
    58    25    26 1   
    59    26    27 1   
    60    26    65 1   
    61    26    66 1   
    62    27    28 1   
    63    27    67 1   
    64    27    68 1   
    65    28    29 1   
    66    29    30 1   
    67    29    69 1   
    68    29    70 1   
    69    30    31 2   
    70    30    71 1   
    71    31    72 1   
    72    31    73 1   
@<TRIPOS>SUBSTRUCTURE
     1 UNL         1 TEMP              0 ****  ****    0 ROOT
