@<TRIPOS>MOLECULE
UNL
   73    72     1     0     0
SMALL
bcc


@<TRIPOS>ATOM
      1 O1           0.5670    -0.8630     8.2450 oh         1 UNL      -0.593800
      2 C1           0.8500    -1.9500     7.3720 c3         1 UNL       0.125400
      3 C2           1.9660    -1.5920     6.3940 c3         1 UNL       0.093400
      4 O2           2.1740    -2.6800     5.4960 os         1 UNL      -0.426600
      5 C3           3.2360    -2.4040     4.5730 c3         1 UNL       0.118400
      6 C4           3.3360    -3.5350     3.5520 c3         1 UNL       0.126400
      7 O3           2.2500    -3.4340     2.6260 os         1 UNL      -0.432600
      8 C5           2.3250    -4.4360     1.6060 c3         1 UNL       0.126400
      9 C6           1.1620    -4.2450     0.6350 c3         1 UNL       0.122400
     10 O4           1.4180    -3.0980    -0.1830 os         1 UNL      -0.420600
     11 C7           0.3040    -2.7230    -0.9930 c3         1 UNL       0.126400
     12 C8          -0.7190    -1.9020    -0.2060 c3         1 UNL       0.090400
     13 O5          -1.7080    -1.3970    -1.1000 os         1 UNL      -0.422600
     14 C9          -2.7530    -0.6590    -0.4550 c3         1 UNL       0.127400
     15 C10         -2.2850     0.6510     0.1900 c3         1 UNL       0.092400
     16 O6          -1.6430     1.4590    -0.7980 os         1 UNL      -0.441600
     17 C11         -1.0710     2.6470    -0.2460 c3         1 UNL       0.089400
     18 C12         -0.1970     3.3320    -1.2990 c3         1 UNL       0.115400
     19 O7           1.1300     2.8060    -1.3570 os         1 UNL      -0.405600
     20 C13          1.2610     1.4450    -1.7910 c3         1 UNL       0.130400
     21 C14          0.6490     1.1160    -3.1570 c3         1 UNL       0.089400
     22 O8           1.2160     1.9660    -4.1640 os         1 UNL      -0.411600
     23 C15          0.8460     1.5890    -5.4960 c3         1 UNL       0.126400
     24 C16         -0.6500     1.7580    -5.7810 c3         1 UNL       0.087400
     25 O9          -1.3410     0.5610    -5.4010 os         1 UNL      -0.432600
     26 C17         -2.7630     0.6590    -5.5360 c3         1 UNL       0.130400
     27 C18         -3.4090     1.3330    -4.3240 c3         1 UNL       0.080400
     28 O10         -3.3560     2.7530    -4.4730 os         1 UNL      -0.438600
     29 C19         -3.8380     3.4220    -3.3140 c3         1 UNL       0.148600
     30 C20         -3.7160     4.9110    -3.4710 c2         1 UNL      -0.187200
     31 C21         -3.1710     5.5640    -4.5070 c2         1 UNL      -0.198000
     32 H1           0.1690    -0.1570     7.7060 ho         1 UNL       0.398000
     33 H2          -0.0660    -2.2250     6.8380 h1         1 UNL       0.058200
     34 H3           1.1410    -2.8150     7.9770 h1         1 UNL       0.058200
     35 H4           1.6920    -0.6920     5.8310 h1         1 UNL       0.032700
     36 H5           2.8880    -1.3750     6.9460 h1         1 UNL       0.032700
     37 H6           3.0380    -1.4540     4.0630 h1         1 UNL       0.053700
     38 H7           4.1730    -2.3320     5.1350 h1         1 UNL       0.053700
     39 H8           4.2820    -3.4470     3.0040 h1         1 UNL       0.044200
     40 H9           3.2890    -4.5090     4.0540 h1         1 UNL       0.044200
     41 H10          3.2800    -4.3390     1.0760 h1         1 UNL       0.044200
     42 H11          2.2590    -5.4230     2.0740 h1         1 UNL       0.044200
     43 H12          1.0720    -5.1200    -0.0180 h1         1 UNL       0.043200
     44 H13          0.2310    -4.1100     1.1950 h1         1 UNL       0.043200
     45 H14          0.6930    -2.1110    -1.8160 h1         1 UNL       0.059200
     46 H15         -0.1590    -3.6020    -1.4580 h1         1 UNL       0.059200
     47 H16         -0.1980    -1.0840     0.3020 h1         1 UNL       0.042200
     48 H17         -1.1990    -2.5210     0.5590 h1         1 UNL       0.042200
     49 H18         -3.4820    -0.4280    -1.2400 h1         1 UNL       0.062700
     50 H19         -3.2540    -1.2990     0.2830 h1         1 UNL       0.062700
     51 H20         -1.5880     0.4480     1.0090 h1         1 UNL       0.041200
     52 H21         -3.1500     1.1920     0.5930 h1         1 UNL       0.041200
     53 H22         -1.8920     3.3120     0.0420 h1         1 UNL       0.040200
     54 H23         -0.4730     2.4010     0.6390 h1         1 UNL       0.040200
     55 H24         -0.6570     3.3120    -2.2920 h1         1 UNL       0.069200
     56 H25         -0.0800     4.3840    -1.0180 h1         1 UNL       0.069200
     57 H26          2.3390     1.2580    -1.8420 h1         1 UNL       0.053700
     58 H27          0.8630     0.7790    -1.0190 h1         1 UNL       0.053700
     59 H28         -0.4320     1.2590    -3.1270 h1         1 UNL       0.043700
     60 H29          0.8640     0.0670    -3.4010 h1         1 UNL       0.043700
     61 H30          1.1810     0.5640    -5.6850 h1         1 UNL       0.058200
     62 H31          1.4070     2.2550    -6.1570 h1         1 UNL       0.058200
     63 H32         -0.7990     1.9020    -6.8560 h1         1 UNL       0.049700
     64 H33         -1.0360     2.6210    -5.2330 h1         1 UNL       0.049700
     65 H34         -3.1280    -0.3720    -5.5930 h1         1 UNL       0.054700
     66 H35         -3.0230     1.1640    -6.4740 h1         1 UNL       0.054700
     67 H36         -2.8910     1.0370    -3.4070 h1         1 UNL       0.055200
     68 H37         -4.4620     1.0380    -4.2620 h1         1 UNL       0.055200
     69 H38         -3.2610     3.1120    -2.4390 h1         1 UNL       0.048200
     70 H39         -4.8900     3.1630    -3.1560 h1         1 UNL       0.048200
     71 H40         -4.1170     5.5000    -2.6490 ha         1 UNL       0.122000
     72 H41         -2.7480     5.0300    -5.3550 ha         1 UNL       0.118000
     73 H42         -3.1290     6.6480    -4.5270 ha         1 UNL       0.118000
@<TRIPOS>BOND
     1     1     2 1   
     2     1    32 1   
     3     2     3 1   
     4     2    33 1   
     5     2    34 1   
     6     3     4 1   
     7     3    35 1   
     8     3    36 1   
     9     4     5 1   
    10     5     6 1   
    11     5    37 1   
    12     5    38 1   
    13     6     7 1   
    14     6    39 1   
    15     6    40 1   
    16     7     8 1   
    17     8     9 1   
    18     8    41 1   
    19     8    42 1   
    20     9    10 1   
    21     9    43 1   
    22     9    44 1   
    23    10    11 1   
    24    11    12 1   
    25    11    45 1   
    26    11    46 1   
    27    12    13 1   
    28    12    47 1   
    29    12    48 1   
    30    13    14 1   
    31    14    15 1   
    32    14    49 1   
    33    14    50 1   
    34    15    16 1   
    35    15    51 1   
    36    15    52 1   
    37    16    17 1   
    38    17    18 1   
    39    17    53 1   
    40    17    54 1   
    41    18    19 1   
    42    18    55 1   
    43    18    56 1   
    44    19    20 1   
    45    20    21 1   
    46    20    57 1   
    47    20    58 1   
    48    21    22 1   
    49    21    59 1   
    50    21    60 1   
    51    22    23 1   
    52    23    24 1   
    53    23    61 1   
    54    23    62 1   
    55    24    25 1   
    56    24    63 1   
    57    24    64 1   
    58    25    26 1   
    59    26    27 1   
    60    26    65 1   
    61    26    66 1   
    62    27    28 1   
    63    27    67 1   
    64    27    68 1   
    65    28    29 1   
    66    29    30 1   
    67    29    69 1   
    68    29    70 1   
    69    30    31 2   
    70    30    71 1   
    71    31    72 1   
    72    31    73 1   
@<TRIPOS>SUBSTRUCTURE
     1 UNL         1 TEMP              0 ****  ****    0 ROOT
