@<TRIPOS>MOLECULE
UNL
   62    65     1     0     0
SMALL
bcc


@<TRIPOS>ATOM
      1 C1           1.8700     7.7030    -1.0020 c3         1 UNL      -0.130600
      2 C2           0.5810     6.8950    -0.9640 c3         1 UNL       0.113800
      3 N1           0.6740     5.5720    -0.1640 n4         1 UNL      -0.606300
      4 C3           1.7680     4.6760    -0.7250 c3         1 UNL       0.086100
      5 C4           0.9740     5.8590     1.3040 c3         1 UNL       0.086100
      6 C5          -0.7220     4.8830    -0.3030 c3         1 UNL       0.170600
      7 C6          -0.9210     3.5330     0.3630 ca         1 UNL      -0.128300
      8 C7          -1.3100     3.5310     1.7150 ca         1 UNL      -0.114000
      9 C8          -1.4930     2.3400     2.4080 ca         1 UNL      -0.091000
     10 C9          -1.3110     1.1130     1.7690 ca         1 UNL      -0.014500
     11 C10         -1.4980    -0.0740     2.4750 ca         1 UNL      -0.076500
     12 C11         -1.3390    -1.3130     1.8510 ca         1 UNL      -0.139500
     13 C12         -0.9880    -1.4280     0.4890 ca         1 UNL       0.002500
     14 C13         -0.8260    -2.6930    -0.1800 ca         1 UNL      -0.128300
     15 C14         -1.0460    -3.9690     0.6230 c3         1 UNL       0.170600
     16 N2          -0.8010    -5.4100     0.0800 n4         1 UNL      -0.606300
     17 C15         -1.1400    -6.3560     1.2540 c3         1 UNL       0.086100
     18 C16         -1.7670    -5.7450    -1.0510 c3         1 UNL       0.086100
     19 C17          0.6790    -5.5920    -0.3020 c3         1 UNL       0.113800
     20 C18          1.0250    -7.0040    -0.7510 c3         1 UNL      -0.130600
     21 C19         -0.5030    -2.6780    -1.5420 ca         1 UNL      -0.114000
     22 C20         -0.3220    -1.4810    -2.2340 ca         1 UNL      -0.091000
     23 C21         -0.4640    -0.2510    -1.5930 ca         1 UNL      -0.014500
     24 C22         -0.2870     0.9340    -2.3070 ca         1 UNL      -0.076500
     25 C23         -0.4360     2.1740    -1.6830 ca         1 UNL      -0.139500
     26 C24         -0.7610     2.2860    -0.3160 ca         1 UNL       0.002500
     27 C25         -0.9520     1.0680     0.4040 ca         1 UNL      -0.013500
     28 C26         -0.8000    -0.2080    -0.2260 ca         1 UNL      -0.013500
     29 H1           2.2060     8.0030    -0.0050 hc         1 UNL       0.078700
     30 H2           2.6790     7.1640    -1.5000 hc         1 UNL       0.078700
     31 H3           1.7020     8.6250    -1.5700 hc         1 UNL       0.078700
     32 H4           0.2850     6.6290    -1.9860 hx         1 UNL       0.099700
     33 H5          -0.2210     7.4880    -0.5090 hx         1 UNL       0.099700
     34 H6           2.7360     5.1610    -0.5700 hx         1 UNL       0.102200
     35 H7           1.7650     3.7280    -0.1850 hx         1 UNL       0.102200
     36 H8           1.5820     4.5250    -1.7910 hx         1 UNL       0.102200
     37 H9           0.1710     6.4830     1.7070 hx         1 UNL       0.102200
     38 H10          1.9350     6.3730     1.3800 hx         1 UNL       0.102200
     39 H11          1.0460     4.9120     1.8430 hx         1 UNL       0.102200
     40 H12         -1.4510     5.5940     0.1100 hx         1 UNL       0.103700
     41 H13         -0.9410     4.8290    -1.3740 hx         1 UNL       0.103700
     42 H14         -1.4870     4.4630     2.2510 ha         1 UNL       0.139500
     43 H15         -1.7900     2.3820     3.4560 ha         1 UNL       0.164500
     44 H16         -1.7790    -0.0530     3.5290 ha         1 UNL       0.160500
     45 H17         -1.5120    -2.1850     2.4770 ha         1 UNL       0.132500
     46 H18         -2.0930    -3.9670     0.9550 hx         1 UNL       0.103700
     47 H19         -0.4000    -3.9100     1.5080 hx         1 UNL       0.103700
     48 H20         -2.1630    -6.1440     1.5810 hx         1 UNL       0.102200
     49 H21         -1.0750    -7.3910     0.9110 hx         1 UNL       0.102200
     50 H22         -0.4290    -6.1720     2.0650 hx         1 UNL       0.102200
     51 H23         -1.4120    -5.3080    -1.9820 hx         1 UNL       0.102200
     52 H24         -2.7570    -5.3610    -0.7910 hx         1 UNL       0.102200
     53 H25         -1.8130    -6.8320    -1.1650 hx         1 UNL       0.102200
     54 H26          0.9110    -4.8980    -1.1080 hx         1 UNL       0.099700
     55 H27          1.2760    -5.3140     0.5740 hx         1 UNL       0.099700
     56 H28          0.9300    -7.7290     0.0620 hc         1 UNL       0.078700
     57 H29          0.4080    -7.3330    -1.5920 hc         1 UNL       0.078700
     58 H30          2.0690    -7.0330    -1.0820 hc         1 UNL       0.078700
     59 H31         -0.3760    -3.5780    -2.1260 ha         1 UNL       0.139500
     60 H32         -0.0700    -1.5220    -3.2940 ha         1 UNL       0.164500
     61 H33         -0.0420     0.9070    -3.3680 ha         1 UNL       0.160500
     62 H34         -0.3040     3.0460    -2.3170 ha         1 UNL       0.132500
@<TRIPOS>BOND
     1     1     2 1   
     2     1    29 1   
     3     1    30 1   
     4     1    31 1   
     5     2     3 1   
     6     2    32 1   
     7     2    33 1   
     8     3     4 1   
     9     3     5 1   
    10     3     6 1   
    11     4    34 1   
    12     4    35 1   
    13     4    36 1   
    14     5    37 1   
    15     5    38 1   
    16     5    39 1   
    17     6     7 1   
    18     6    40 1   
    19     6    41 1   
    20     7     8 ar  
    21     7    26 ar  
    22     8     9 ar  
    23     8    42 1   
    24     9    10 ar  
    25     9    43 1   
    26    10    11 ar  
    27    10    27 ar  
    28    11    12 ar  
    29    11    44 1   
    30    12    13 ar  
    31    12    45 1   
    32    13    14 ar  
    33    13    28 ar  
    34    14    15 1   
    35    14    21 ar  
    36    15    16 1   
    37    15    46 1   
    38    15    47 1   
    39    16    17 1   
    40    16    18 1   
    41    16    19 1   
    42    17    48 1   
    43    17    49 1   
    44    17    50 1   
    45    18    51 1   
    46    18    52 1   
    47    18    53 1   
    48    19    20 1   
    49    19    54 1   
    50    19    55 1   
    51    20    56 1   
    52    20    57 1   
    53    20    58 1   
    54    21    22 ar  
    55    21    59 1   
    56    22    23 ar  
    57    22    60 1   
    58    23    24 ar  
    59    23    28 ar  
    60    24    25 ar  
    61    24    61 1   
    62    25    26 ar  
    63    25    62 1   
    64    26    27 ar  
    65    27    28 ar  
@<TRIPOS>SUBSTRUCTURE
     1 UNL         1 TEMP              0 ****  ****    0 ROOT
