@<TRIPOS>MOLECULE
UNL
   62    65     1     0     0
SMALL
bcc


@<TRIPOS>ATOM
      1 C1          -2.0520     0.6840     4.3730 c3         1 UNL      -0.130600
      2 C2          -1.0930     0.7930     5.5490 c3         1 UNL       0.118300
      3 N1           0.1430    -0.1260     5.4620 n4         1 UNL      -0.608300
      4 C3           0.6150    -0.3740     6.9110 c3         1 UNL       0.086350
      5 C4          -0.1920    -1.4840     4.8650 c3         1 UNL       0.086350
      6 C5           1.3410     0.5420     4.7290 c3         1 UNL       0.172100
      7 C6           1.1730     0.9710     3.2860 ca         1 UNL      -0.139800
      8 C7           0.7020     2.2770     3.0550 ca         1 UNL      -0.100000
      9 C8           0.5210     2.7590     1.7640 ca         1 UNL      -0.095500
     10 C9           0.8210     1.9600     0.6610 ca         1 UNL      -0.011500
     11 C10          0.6500     2.4630    -0.6280 ca         1 UNL      -0.075500
     12 C11          0.9700     1.6920    -1.7470 ca         1 UNL      -0.142500
     13 C12          1.4670     0.3780    -1.6310 ca         1 UNL       0.007000
     14 C13          1.8140    -0.4410    -2.7490 ca         1 UNL      -0.139800
     15 C14          1.6640    -0.0000    -4.1950 c3         1 UNL       0.172100
     16 N2           0.3680    -0.4250    -4.9570 n4         1 UNL      -0.608300
     17 C15         -0.8620     0.1400    -4.2610 c3         1 UNL       0.086350
     18 C16          0.4640     0.1870    -6.3590 c3         1 UNL       0.086350
     19 C17          0.2890    -1.9610    -5.0410 c3         1 UNL       0.118300
     20 C18         -0.8280    -2.4800    -5.9340 c3         1 UNL      -0.130600
     21 C19          2.3660    -1.7140    -2.5170 ca         1 UNL      -0.100000
     22 C20          2.5380    -2.1990    -1.2250 ca         1 UNL      -0.095500
     23 C21          2.1840    -1.4220    -0.1230 ca         1 UNL      -0.011500
     24 C22          2.3840    -1.9130     1.1670 ca         1 UNL      -0.075500
     25 C23          2.0620    -1.1430     2.2850 ca         1 UNL      -0.142500
     26 C24          1.5120     0.1500     2.1680 ca         1 UNL       0.007000
     27 C25          1.3220     0.6520     0.8450 ca         1 UNL      -0.017500
     28 C26          1.6480    -0.1280    -0.3080 ca         1 UNL      -0.017500
     29 H1          -2.8160     1.4640     4.4540 hc         1 UNL       0.077033
     30 H2          -2.5780    -0.2760     4.3790 hc         1 UNL       0.077033
     31 H3          -1.5680     0.7960     3.4030 hc         1 UNL       0.077033
     32 H4          -0.7290     1.8180     5.6810 hx         1 UNL       0.097700
     33 H5          -1.6390     0.5160     6.4580 hx         1 UNL       0.097700
     34 H6           0.8180     0.5960     7.3760 hx         1 UNL       0.101783
     35 H7          -0.1790    -0.9000     7.4490 hx         1 UNL       0.101783
     36 H8           1.5210    -0.9850     6.8820 hx         1 UNL       0.101783
     37 H9          -1.0230    -1.9140     5.4320 hx         1 UNL       0.101783
     38 H10          0.6890    -2.1270     4.9500 hx         1 UNL       0.101783
     39 H11         -0.4700    -1.3620     3.8160 hx         1 UNL       0.101783
     40 H12          2.1950    -0.1380     4.8350 hx         1 UNL       0.104700
     41 H13          1.6040     1.4240     5.3300 hx         1 UNL       0.104700
     42 H14          0.4750     2.9470     3.8830 ha         1 UNL       0.145500
     43 H15          0.1560     3.7770     1.6290 ha         1 UNL       0.166000
     44 H16          0.2810     3.4770    -0.7800 ha         1 UNL       0.161500
     45 H17          0.8360     2.1750    -2.7100 ha         1 UNL       0.129500
     46 H18          1.7430     1.0880    -4.2850 hx         1 UNL       0.104700
     47 H19          2.5020    -0.4010    -4.7820 hx         1 UNL       0.104700
     48 H20         -1.7430    -0.0590    -4.8770 hx         1 UNL       0.101783
     49 H21         -0.7360     1.2210    -4.1590 hx         1 UNL       0.101783
     50 H22         -0.9720    -0.3400    -3.2850 hx         1 UNL       0.101783
     51 H23          0.6360     1.2620    -6.2560 hx         1 UNL       0.101783
     52 H24         -0.4790     0.0210    -6.8870 hx         1 UNL       0.101783
     53 H25          1.2970    -0.2880    -6.8850 hx         1 UNL       0.101783
     54 H26          1.2560    -2.3130    -5.4170 hx         1 UNL       0.097700
     55 H27          0.1400    -2.3360    -4.0230 hx         1 UNL       0.097700
     56 H28         -1.8140    -2.1360    -5.6120 hc         1 UNL       0.077033
     57 H29         -0.8400    -3.5750    -5.8980 hc         1 UNL       0.077033
     58 H30         -0.6800    -2.2000    -6.9810 hc         1 UNL       0.077033
     59 H31          2.6900    -2.3450    -3.3430 ha         1 UNL       0.145500
     60 H32          2.9730    -3.1890    -1.0890 ha         1 UNL       0.166000
     61 H33          2.8170    -2.9010     1.3190 ha         1 UNL       0.161500
     62 H34          2.2820    -1.5880     3.2510 ha         1 UNL       0.129500
@<TRIPOS>BOND
     1     1     2 1   
     2     1    29 1   
     3     1    30 1   
     4     1    31 1   
     5     2     3 1   
     6     2    32 1   
     7     2    33 1   
     8     3     4 1   
     9     3     5 1   
    10     3     6 1   
    11     4    34 1   
    12     4    35 1   
    13     4    36 1   
    14     5    37 1   
    15     5    38 1   
    16     5    39 1   
    17     6     7 1   
    18     6    40 1   
    19     6    41 1   
    20     7     8 ar  
    21     7    26 ar  
    22     8     9 ar  
    23     8    42 1   
    24     9    10 ar  
    25     9    43 1   
    26    10    11 ar  
    27    10    27 ar  
    28    11    12 ar  
    29    11    44 1   
    30    12    13 ar  
    31    12    45 1   
    32    13    14 ar  
    33    13    28 ar  
    34    14    15 1   
    35    14    21 ar  
    36    15    16 1   
    37    15    46 1   
    38    15    47 1   
    39    16    17 1   
    40    16    18 1   
    41    16    19 1   
    42    17    48 1   
    43    17    49 1   
    44    17    50 1   
    45    18    51 1   
    46    18    52 1   
    47    18    53 1   
    48    19    20 1   
    49    19    54 1   
    50    19    55 1   
    51    20    56 1   
    52    20    57 1   
    53    20    58 1   
    54    21    22 ar  
    55    21    59 1   
    56    22    23 ar  
    57    22    60 1   
    58    23    24 ar  
    59    23    28 ar  
    60    24    25 ar  
    61    24    61 1   
    62    25    26 ar  
    63    25    62 1   
    64    26    27 ar  
    65    27    28 ar  
@<TRIPOS>SUBSTRUCTURE
     1 UNL         1 TEMP              0 ****  ****    0 ROOT
