@<TRIPOS>MOLECULE
UNL
   62    65     1     0     0
SMALL
bcc


@<TRIPOS>ATOM
      1 C1          -1.3990     3.2540    -2.7720 c3         1 UNL      -0.129100
      2 C2          -1.1850     4.6100    -2.1210 c3         1 UNL       0.115300
      3 N1           0.2350     5.1840    -2.2630 n4         1 UNL      -0.608300
      4 C3           0.7950     4.9880    -3.6660 c3         1 UNL       0.086850
      5 C4           0.1240     6.7090    -2.0400 c3         1 UNL       0.086850
      6 C5           1.2160     4.6670    -1.1740 c3         1 UNL       0.171600
      7 C6           1.5310     3.1860    -1.1110 ca         1 UNL      -0.138300
      8 C7           2.5140     2.6970    -1.9890 ca         1 UNL      -0.105000
      9 C8           2.8760     1.3550    -1.9880 ca         1 UNL      -0.094500
     10 C9           2.2800     0.4610    -1.0980 ca         1 UNL      -0.011500
     11 C10          2.6700    -0.8780    -1.0940 ca         1 UNL      -0.077000
     12 C11          2.1070    -1.7860    -0.1960 ca         1 UNL      -0.141000
     13 C12          1.1160    -1.4060     0.7300 ca         1 UNL       0.009500
     14 C13          0.5150    -2.3050     1.6630 ca         1 UNL      -0.138300
     15 C14          0.8290    -3.7920     1.7410 c3         1 UNL       0.171600
     16 N2          -0.1410    -4.7840     1.0340 n4         1 UNL      -0.608300
     17 C15          0.2340    -6.2070     1.4660 c3         1 UNL       0.086850
     18 C16         -1.5850    -4.5500     1.4900 c3         1 UNL       0.086850
     19 C17         -0.1180    -4.6470    -0.4970 c3         1 UNL       0.115300
     20 C18          1.1230    -5.2350    -1.1500 c3         1 UNL      -0.129100
     21 C19         -0.4000    -1.7930     2.6020 ca         1 UNL      -0.105000
     22 C20         -0.7680    -0.4530     2.5970 ca         1 UNL      -0.094500
     23 C21         -0.2180     0.4290     1.6680 ca         1 UNL      -0.011500
     24 C22         -0.5900     1.7730     1.6810 ca         1 UNL      -0.077000
     25 C23         -0.0290     2.6810     0.7820 ca         1 UNL      -0.141000
     26 C24          0.9260     2.2880    -0.1770 ca         1 UNL       0.009500
     27 C25          1.3040     0.9110    -0.1840 ca         1 UNL      -0.018000
     28 C26          0.7320    -0.0300     0.7310 ca         1 UNL      -0.018000
     29 H1          -1.3470     3.3220    -3.8630 hc         1 UNL       0.075533
     30 H2          -0.6890     2.4960    -2.4440 hc         1 UNL       0.075533
     31 H3          -2.4020     2.8890    -2.5270 hc         1 UNL       0.075533
     32 H4          -1.4200     4.5850    -1.0530 hx         1 UNL       0.098700
     33 H5          -1.8680     5.3250    -2.5940 hx         1 UNL       0.098700
     34 H6           0.9070     3.9220    -3.8690 hx         1 UNL       0.102450
     35 H7           0.0960     5.4340    -4.3810 hx         1 UNL       0.102450
     36 H8           1.7670     5.4870    -3.7250 hx         1 UNL       0.102450
     37 H9          -0.3100     6.8810    -1.0510 hx         1 UNL       0.102450
     38 H10         -0.5190     7.1290    -2.8190 hx         1 UNL       0.102450
     39 H11          1.1260     7.1430    -2.1020 hx         1 UNL       0.102450
     40 H12          0.8370     5.0330    -0.2150 hx         1 UNL       0.104700
     41 H13          2.1570     5.2120    -1.3330 hx         1 UNL       0.104700
     42 H14          3.0330     3.3610    -2.6790 ha         1 UNL       0.145000
     43 H15          3.6460     1.0180    -2.6810 ha         1 UNL       0.166000
     44 H16          3.4400    -1.2300    -1.7800 ha         1 UNL       0.161500
     45 H17          2.5000    -2.7950    -0.2330 ha         1 UNL       0.131500
     46 H18          0.8310    -4.0850     2.8000 hx         1 UNL       0.104700
     47 H19          1.8380    -4.0170     1.3820 hx         1 UNL       0.104700
     48 H20         -0.3840    -6.9140     0.9060 hx         1 UNL       0.102450
     49 H21          1.2960    -6.3690     1.2630 hx         1 UNL       0.102450
     50 H22          0.0450    -6.3030     2.5400 hx         1 UNL       0.102450
     51 H23         -1.6130    -4.5740     2.5830 hx         1 UNL       0.102450
     52 H24         -2.2090    -5.3530     1.0850 hx         1 UNL       0.102450
     53 H25         -1.9280    -3.5890     1.0990 hx         1 UNL       0.102450
     54 H26         -0.2300    -3.5860    -0.7350 hx         1 UNL       0.098700
     55 H27         -1.0000    -5.1730    -0.8820 hx         1 UNL       0.098700
     56 H28          2.0530    -4.9000    -0.6880 hc         1 UNL       0.075533
     57 H29          1.1520    -4.9490    -2.2070 hc         1 UNL       0.075533
     58 H30          1.1060    -6.3300    -1.1180 hc         1 UNL       0.075533
     59 H31         -0.8340    -2.4320     3.3710 ha         1 UNL       0.145000
     60 H32         -1.4810    -0.1000     3.3420 ha         1 UNL       0.166000
     61 H33         -1.3140     2.1380     2.4100 ha         1 UNL       0.161500
     62 H34         -0.3600     3.7110     0.8800 ha         1 UNL       0.131500
@<TRIPOS>BOND
     1     1     2 1   
     2     1    29 1   
     3     1    30 1   
     4     1    31 1   
     5     2     3 1   
     6     2    32 1   
     7     2    33 1   
     8     3     4 1   
     9     3     5 1   
    10     3     6 1   
    11     4    34 1   
    12     4    35 1   
    13     4    36 1   
    14     5    37 1   
    15     5    38 1   
    16     5    39 1   
    17     6     7 1   
    18     6    40 1   
    19     6    41 1   
    20     7     8 ar  
    21     7    26 ar  
    22     8     9 ar  
    23     8    42 1   
    24     9    10 ar  
    25     9    43 1   
    26    10    11 ar  
    27    10    27 ar  
    28    11    12 ar  
    29    11    44 1   
    30    12    13 ar  
    31    12    45 1   
    32    13    14 ar  
    33    13    28 ar  
    34    14    15 1   
    35    14    21 ar  
    36    15    16 1   
    37    15    46 1   
    38    15    47 1   
    39    16    17 1   
    40    16    18 1   
    41    16    19 1   
    42    17    48 1   
    43    17    49 1   
    44    17    50 1   
    45    18    51 1   
    46    18    52 1   
    47    18    53 1   
    48    19    20 1   
    49    19    54 1   
    50    19    55 1   
    51    20    56 1   
    52    20    57 1   
    53    20    58 1   
    54    21    22 ar  
    55    21    59 1   
    56    22    23 ar  
    57    22    60 1   
    58    23    24 ar  
    59    23    28 ar  
    60    24    25 ar  
    61    24    61 1   
    62    25    26 ar  
    63    25    62 1   
    64    26    27 ar  
    65    27    28 ar  
@<TRIPOS>SUBSTRUCTURE
     1 UNL         1 TEMP              0 ****  ****    0 ROOT
