@<TRIPOS>MOLECULE
UNL
   62    65     1     0     0
SMALL
bcc


@<TRIPOS>ATOM
      1 C1          -0.3310    -1.0200    -7.3960 c3         1 UNL      -0.129600
      2 C2           0.2450    -1.8510    -6.2590 c3         1 UNL       0.119300
      3 N1           0.5040    -1.0610    -4.9530 n4         1 UNL      -0.608800
      4 C3           1.5200     0.0490    -5.1960 c3         1 UNL       0.086100
      5 C4          -0.7860    -0.4450    -4.4300 c3         1 UNL       0.086100
      6 C5           1.0680    -2.0960    -3.9290 c3         1 UNL       0.172100
      7 C6           1.3940    -1.6130    -2.5260 ca         1 UNL      -0.138800
      8 C7           2.6690    -1.0590    -2.3130 ca         1 UNL      -0.104000
      9 C8           3.0510    -0.5970    -1.0590 ca         1 UNL      -0.094500
     10 C9           2.1810    -0.6900     0.0270 ca         1 UNL      -0.011500
     11 C10          2.5850    -0.2380     1.2830 ca         1 UNL      -0.076500
     12 C11          1.7420    -0.3440     2.3900 ca         1 UNL      -0.140000
     13 C12          0.4500    -0.9010     2.2930 ca         1 UNL       0.008500
     14 C13         -0.4430    -1.0350     3.4010 ca         1 UNL      -0.138800
     15 C14         -0.0980    -0.6020     4.8120 c3         1 UNL       0.172100
     16 N2          -0.6420     0.7540     5.3420 n4         1 UNL      -0.608800
     17 C15         -2.1610     0.7520     5.4450 c3         1 UNL       0.086100
     18 C16         -0.1020     0.8920     6.7840 c3         1 UNL       0.086100
     19 C17         -0.1160     1.9660     4.5540 c3         1 UNL       0.119300
     20 C18         -0.9010     2.3040     3.2970 c3         1 UNL      -0.129600
     21 C19         -1.6920    -1.6490     3.2010 ca         1 UNL      -0.104000
     22 C20         -2.0820    -2.0930     1.9420 ca         1 UNL      -0.094500
     23 C21         -1.2300    -1.9550     0.8460 ca         1 UNL      -0.011500
     24 C22         -1.6270    -2.4240    -0.4060 ca         1 UNL      -0.076500
     25 C23         -0.7820    -2.3200    -1.5120 ca         1 UNL      -0.140000
     26 C24          0.4960    -1.7330    -1.4210 ca         1 UNL       0.008500
     27 C25          0.8990    -1.2590    -0.1360 ca         1 UNL      -0.018000
     28 C26          0.0420    -1.3630     1.0050 ca         1 UNL      -0.018000
     29 H1           0.3450    -0.2200    -7.7090 hc         1 UNL       0.077533
     30 H2          -0.4880    -1.6640    -8.2680 hc         1 UNL       0.077533
     31 H3          -1.3010    -0.5860    -7.1420 hc         1 UNL       0.077533
     32 H4           1.2030    -2.2890    -6.5630 hx         1 UNL       0.096950
     33 H5          -0.4470    -2.6630    -6.0080 hx         1 UNL       0.096950
     34 H6           1.1170     0.7480    -5.9330 hx         1 UNL       0.101783
     35 H7           2.4480    -0.4020    -5.5590 hx         1 UNL       0.101783
     36 H8           1.6850     0.5910    -4.2620 hx         1 UNL       0.101783
     37 H9          -1.5290    -1.2380    -4.3170 hx         1 UNL       0.101783
     38 H10         -1.1350     0.3060    -5.1430 hx         1 UNL       0.101783
     39 H11         -0.5840     0.0470    -3.4760 hx         1 UNL       0.101783
     40 H12          1.9820    -2.5020    -4.3840 hx         1 UNL       0.104450
     41 H13          0.3610    -2.9310    -3.9020 hx         1 UNL       0.104450
     42 H14          3.3950    -0.9940    -3.1220 ha         1 UNL       0.145500
     43 H15          4.0500    -0.1780    -0.9350 ha         1 UNL       0.166000
     44 H16          3.5780     0.1910     1.4210 ha         1 UNL       0.161500
     45 H17          2.1480     0.0120     3.3310 ha         1 UNL       0.130000
     46 H18         -0.4720    -1.3680     5.5070 hx         1 UNL       0.104450
     47 H19          0.9860    -0.5860     4.9680 hx         1 UNL       0.104450
     48 H20         -2.4780     1.7000     5.8900 hx         1 UNL       0.101783
     49 H21         -2.5960     0.6420     4.4500 hx         1 UNL       0.101783
     50 H22         -2.4650    -0.0850     6.0820 hx         1 UNL       0.101783
     51 H23          0.9910     0.9350     6.7390 hx         1 UNL       0.101783
     52 H24         -0.5040     1.8120     7.2190 hx         1 UNL       0.101783
     53 H25         -0.4310     0.0240     7.3630 hx         1 UNL       0.101783
     54 H26          0.9380     1.7770     4.3320 hx         1 UNL       0.096950
     55 H27         -0.1640     2.8310     5.2260 hx         1 UNL       0.096950
     56 H28         -1.0060     1.4650     2.6100 hc         1 UNL       0.077533
     57 H29         -0.3890     3.1070     2.7550 hc         1 UNL       0.077533
     58 H30         -1.9020     2.6760     3.5390 hc         1 UNL       0.077533
     59 H31         -2.3780    -1.8130     4.0310 ha         1 UNL       0.145500
     60 H32         -3.0560    -2.5690     1.8310 ha         1 UNL       0.166000
     61 H33         -2.6010    -2.8970    -0.5340 ha         1 UNL       0.161500
     62 H34         -1.1610    -2.7360    -2.4410 ha         1 UNL       0.130000
@<TRIPOS>BOND
     1     1     2 1   
     2     1    29 1   
     3     1    30 1   
     4     1    31 1   
     5     2     3 1   
     6     2    32 1   
     7     2    33 1   
     8     3     4 1   
     9     3     5 1   
    10     3     6 1   
    11     4    34 1   
    12     4    35 1   
    13     4    36 1   
    14     5    37 1   
    15     5    38 1   
    16     5    39 1   
    17     6     7 1   
    18     6    40 1   
    19     6    41 1   
    20     7     8 ar  
    21     7    26 ar  
    22     8     9 ar  
    23     8    42 1   
    24     9    10 ar  
    25     9    43 1   
    26    10    11 ar  
    27    10    27 ar  
    28    11    12 ar  
    29    11    44 1   
    30    12    13 ar  
    31    12    45 1   
    32    13    14 ar  
    33    13    28 ar  
    34    14    15 1   
    35    14    21 ar  
    36    15    16 1   
    37    15    46 1   
    38    15    47 1   
    39    16    17 1   
    40    16    18 1   
    41    16    19 1   
    42    17    48 1   
    43    17    49 1   
    44    17    50 1   
    45    18    51 1   
    46    18    52 1   
    47    18    53 1   
    48    19    20 1   
    49    19    54 1   
    50    19    55 1   
    51    20    56 1   
    52    20    57 1   
    53    20    58 1   
    54    21    22 ar  
    55    21    59 1   
    56    22    23 ar  
    57    22    60 1   
    58    23    24 ar  
    59    23    28 ar  
    60    24    25 ar  
    61    24    61 1   
    62    25    26 ar  
    63    25    62 1   
    64    26    27 ar  
    65    27    28 ar  
@<TRIPOS>SUBSTRUCTURE
     1 UNL         1 TEMP              0 ****  ****    0 ROOT
