@<TRIPOS>MOLECULE
UNL
   62    65     1     0     0
SMALL
bcc


@<TRIPOS>ATOM
      1 C1           6.2370     3.6480    -3.5180 c3         1 UNL      -0.130100
      2 C2           5.2880     2.5720    -3.0110 c3         1 UNL       0.113300
      3 N1           4.0310     2.3970    -3.8810 n4         1 UNL      -0.603800
      4 C3           3.2830     3.6970    -4.1580 c3         1 UNL       0.085850
      5 C4           4.4550     1.8230    -5.2520 c3         1 UNL       0.085850
      6 C5           3.0860     1.3280    -3.2540 c3         1 UNL       0.167600
      7 C6           2.3350     1.5080    -1.9390 ca         1 UNL      -0.111300
      8 C7           2.4560     2.6410    -1.1260 ca         1 UNL      -0.126000
      9 C8           1.7400     2.7610     0.0650 ca         1 UNL      -0.088000
     10 C9           0.8800     1.7500     0.4900 ca         1 UNL      -0.018000
     11 C10          0.1700     1.8920     1.6820 ca         1 UNL      -0.077500
     12 C11         -0.6920     0.8870     2.1260 ca         1 UNL      -0.136500
     13 C12         -0.8830    -0.3100     1.4040 ca         1 UNL      -0.004500
     14 C13         -1.7570    -1.3680     1.8410 ca         1 UNL      -0.111300
     15 C14         -2.5070    -1.1940     3.1560 c3         1 UNL       0.167600
     16 N2          -3.3340    -2.3090     3.8460 n4         1 UNL      -0.603800
     17 C15         -4.6210    -2.5950     3.0660 c3         1 UNL       0.085850
     18 C16         -3.7940    -1.7440     5.2100 c3         1 UNL       0.085850
     19 C17         -2.5730    -3.6220     4.0960 c3         1 UNL       0.113300
     20 C18         -1.2050    -3.4310     4.7310 c3         1 UNL      -0.130100
     21 C19         -1.8920    -2.4920     1.0190 ca         1 UNL      -0.126000
     22 C20         -1.1800    -2.6100    -0.1740 ca         1 UNL      -0.088000
     23 C21         -0.3150    -1.6020    -0.5970 ca         1 UNL      -0.018000
     24 C22          0.3920    -1.7410    -1.7910 ca         1 UNL      -0.077500
     25 C23          1.2560    -0.7380    -2.2330 ca         1 UNL      -0.136500
     26 C24          1.4550     0.4550    -1.5050 ca         1 UNL      -0.004500
     27 C25          0.7280     0.5850    -0.2840 ca         1 UNL      -0.008000
     28 C26         -0.1580    -0.4390     0.1810 ca         1 UNL      -0.008000
     29 H1           6.6250     3.4260    -4.5140 hc         1 UNL       0.078033
     30 H2           5.7630     4.6340    -3.5360 hc         1 UNL       0.078033
     31 H3           7.0990     3.7170    -2.8460 hc         1 UNL       0.078033
     32 H4           4.9760     2.8190    -1.9970 hx         1 UNL       0.100950
     33 H5           5.7960     1.6000    -2.9790 hx         1 UNL       0.100950
     34 H6           3.8550     4.2840    -4.8830 hx         1 UNL       0.103200
     35 H7           3.1820     4.2710    -3.2390 hx         1 UNL       0.103200
     36 H8           2.3020     3.4520    -4.5770 hx         1 UNL       0.103200
     37 H9           5.0770     2.5560    -5.7710 hx         1 UNL       0.103200
     38 H10          3.5520     1.6280    -5.8390 hx         1 UNL       0.103200
     39 H11          5.0100     0.8950    -5.0820 hx         1 UNL       0.103200
     40 H12          3.7090     0.4290    -3.1610 hx         1 UNL       0.103450
     41 H13          2.3290     1.1480    -4.0280 hx         1 UNL       0.103450
     42 H14          3.1040     3.4740    -1.3660 ha         1 UNL       0.132000
     43 H15          1.8660     3.6640     0.6630 ha         1 UNL       0.162000
     44 H16          0.2770     2.7920     2.2860 ha         1 UNL       0.160000
     45 H17         -1.2090     1.0850     3.0610 ha         1 UNL       0.134000
     46 H18         -1.7720    -0.9000     3.9150 hx         1 UNL       0.103450
     47 H19         -3.2070    -0.3570     3.0280 hx         1 UNL       0.103450
     48 H20         -4.3830    -3.0620     2.1120 hx         1 UNL       0.103200
     49 H21         -5.2380    -3.2760     3.6600 hx         1 UNL       0.103200
     50 H22         -5.1480    -1.6500     2.9030 hx         1 UNL       0.103200
     51 H23         -2.9150    -1.4640     5.7950 hx         1 UNL       0.103200
     52 H24         -4.4140    -0.8610     5.0240 hx         1 UNL       0.103200
     53 H25         -4.3740    -2.5130     5.7280 hx         1 UNL       0.103200
     54 H26         -3.2060    -4.2380     4.7450 hx         1 UNL       0.100950
     55 H27         -2.4780    -4.1530     3.1480 hx         1 UNL       0.100950
     56 H28         -0.5210    -2.8830     4.0770 hc         1 UNL       0.078033
     57 H29         -0.7520    -4.4110     4.9190 hc         1 UNL       0.078033
     58 H30         -1.2610    -2.9120     5.6910 hc         1 UNL       0.078033
     59 H31         -2.5440    -3.3210     1.2570 ha         1 UNL       0.132000
     60 H32         -1.3130    -3.5080    -0.7770 ha         1 UNL       0.162000
     61 H33          0.2780    -2.6380    -2.3980 ha         1 UNL       0.160000
     62 H34          1.7670    -0.9310    -3.1720 ha         1 UNL       0.134000
@<TRIPOS>BOND
     1     1     2 1   
     2     1    29 1   
     3     1    30 1   
     4     1    31 1   
     5     2     3 1   
     6     2    32 1   
     7     2    33 1   
     8     3     4 1   
     9     3     5 1   
    10     3     6 1   
    11     4    34 1   
    12     4    35 1   
    13     4    36 1   
    14     5    37 1   
    15     5    38 1   
    16     5    39 1   
    17     6     7 1   
    18     6    40 1   
    19     6    41 1   
    20     7     8 ar  
    21     7    26 ar  
    22     8     9 ar  
    23     8    42 1   
    24     9    10 ar  
    25     9    43 1   
    26    10    11 ar  
    27    10    27 ar  
    28    11    12 ar  
    29    11    44 1   
    30    12    13 ar  
    31    12    45 1   
    32    13    14 ar  
    33    13    28 ar  
    34    14    15 1   
    35    14    21 ar  
    36    15    16 1   
    37    15    46 1   
    38    15    47 1   
    39    16    17 1   
    40    16    18 1   
    41    16    19 1   
    42    17    48 1   
    43    17    49 1   
    44    17    50 1   
    45    18    51 1   
    46    18    52 1   
    47    18    53 1   
    48    19    20 1   
    49    19    54 1   
    50    19    55 1   
    51    20    56 1   
    52    20    57 1   
    53    20    58 1   
    54    21    22 ar  
    55    21    59 1   
    56    22    23 ar  
    57    22    60 1   
    58    23    24 ar  
    59    23    28 ar  
    60    24    25 ar  
    61    24    61 1   
    62    25    26 ar  
    63    25    62 1   
    64    26    27 ar  
    65    27    28 ar  
@<TRIPOS>SUBSTRUCTURE
     1 UNL         1 TEMP              0 ****  ****    0 ROOT
