@<TRIPOS>MOLECULE
AMO
   23    23     1     0     1 
SMALL
USER_CHARGES
@<TRIPOS>ATOM
  1 C1         -1.455580   -0.288327    0.514425 C         1 AMO        0.0129 ****
  2 H1         -2.067714   -0.558661    1.373011 H         1 AMO        0.1741 ****
  3 O1         -2.177352   -0.466724   -0.655076 O         1 AMO       -0.3502 ****
  4 C2         -1.067664    1.187016    0.591424 C         1 AMO        0.0834 ****
  5 H2         -1.966804    1.779189    0.419861 H         1 AMO        0.0964 ****
  6 O2         -0.502333    1.488044    1.831274 O         1 AMO       -0.6300 ****
  7 HO2        -1.082795    1.239753    2.531592 H         1 AMO        0.4350 ****
  8 C3         -0.033751    1.506820   -0.487912 C         1 AMO        0.1014 ****
  9 H3         -0.518240    1.346968   -1.452331 H         1 AMO        0.0585 ****
 10 O3          0.445853    2.812674   -0.396218 O         1 AMO       -0.6319 ****
 11 HO3        -0.264880    3.426264   -0.482494 H         1 AMO        0.4382 ****
 12 C4          1.149585    0.553515   -0.375330 C         1 AMO        0.2874 ****
 13 H4          1.680957    0.748629    0.542477 H         1 AMO        0.1699 ****
 14 O4          2.070504    0.736940   -1.415935 O         1 AMO       -0.6675 ****
 15 HO4         1.655277    0.577684   -2.248672 H         1 AMO        0.4202 ****
 16 C5          0.661992   -0.901640   -0.367411 C         1 AMO       -0.0272 ****
 17 H5          0.269625   -1.137489   -1.358508 H         1 AMO        0.1175 ****
 18 O5         -0.350533   -1.115613    0.590128 O         1 AMO       -0.3079 ****
 19 C6          1.775142   -1.889688   -0.079183 C         1 AMO        0.1411 ****
 20 H61         2.506865   -1.815827   -0.878366 H         1 AMO        0.0307 ****
 21 H62         1.352357   -2.892664   -0.089077 H         1 AMO        0.0307 ****
 22 O6          2.349480   -1.602189    1.162441 O         1 AMO       -0.6141 ****
 23 HO6         3.155555   -2.079464    1.260052 H         1 AMO        0.4214 ****
@<TRIPOS>BOND
    1     1     2 1
    2     1     3 1
    3     1     4 1
    4     1    18 1
    5     4     5 1
    6     4     6 1
    7     4     8 1
    8     6     7 1
    9     8     9 1
   10     8    10 1
   11     8    12 1
   12    10    11 1
   13    12    13 1
   14    12    14 1
   15    12    16 1
   16    14    15 1
   17    16    17 1
   18    16    18 1
   19    16    19 1
   20    19    20 1
   21    19    21 1
   22    19    22 1
   23    22    23 1
@<TRIPOS>SUBSTRUCTURE
      1  AMO              1 ****               0 ****  **** 
