@<TRIPOS>MOLECULE
BM4
   20    20     1     0     1 
SMALL
USER_CHARGES
@<TRIPOS>ATOM
  1 C1          0.827809   -0.370435   -0.345635 C         1 BM4        0.0394 ****
  2 H1          0.968653   -0.402864   -1.420166 H         1 BM4        0.1574 ****
  3 NH1         2.111482   -0.431191    0.266074 N         1 BM4       -0.3845 ****
  4 HN1         2.093855   -0.507509    1.258340 H         1 BM4        0.3057 ****
  5 C2         -0.032022   -1.543880    0.103245 C         1 BM4       -0.0429 ****
  6 H2          0.388772   -2.474888   -0.273095 H         1 BM4        0.1057 ****
  7 O2         -0.066547   -1.550012    1.504047 O         1 BM4       -0.6107 ****
  8 HO2        -0.169873   -2.430813    1.819869 H         1 BM4        0.4591 ****
  9 C3         -1.447276   -1.406027   -0.459192 C         1 BM4        0.1591 ****
 10 H3         -1.386846   -1.477181   -1.549446 H         1 BM4        0.0516 ****
 11 C4         -2.036990   -0.046228   -0.108559 C         1 BM4        0.0956 ****
 12 H4         -2.194702    0.003532    0.957447 H         1 BM4        0.2163 ****
 13 O4         -3.286112    0.157568   -0.710207 O         1 BM4       -0.6309 ****
 14 HO4        -3.244560   -0.043291   -1.631267 H         1 BM4        0.4209 ****
 15 C5         -1.054804    1.057018   -0.523232 C         1 BM4        0.0020 ****
 16 H5         -0.982857    1.064561   -1.616764 H         1 BM4        0.0806 ****
 17 O5          0.216236    0.833997    0.022767 O         1 BM4       -0.2405 ****
 18 C6         -1.510421    2.439621   -0.100059 C         1 BM4        0.2171 ****
 19 H61        -0.744596    3.151988   -0.398264 H         1 BM4        0.0095 ****
 20 H62        -2.428896    2.673315   -0.630836 H         1 BM4        0.0095 ****
@<TRIPOS>BOND
    1    18    19 1
    2    18    20 1
    3    15    16 1
    4    15    17 1
    5    15    18 1
    6    13    14 1
    7    11    12 1
    8    11    13 1
    9    11    15 1
   10     9    10 1
   11     9    11 1
   12     7     8 1
   13     5     6 1
   14     5     7 1
   15     5     9 1
   16     3     4 1
   17     1     2 1
   18     1     3 1
   19     1     5 1
   20     1    17 1
@<TRIPOS>SUBSTRUCTURE
      1  BM4              1 ****               0 ****  **** 
