@<TRIPOS>MOLECULE
BMO
   24    24     1     0     1 
SMALL
USER_CHARGES
@<TRIPOS>ATOM
  1 C1          0.827809   -0.370435   -0.345635 C         1 BMO        0.0394 ****
  2 H1          0.968653   -0.402864   -1.420166 H         1 BMO        0.1574 ****
  3 NH1         2.111482   -0.431191    0.266074 N         1 BMO       -0.3845 ****
  4 HN1         2.093855   -0.507509    1.258340 H         1 BMO        0.3057 ****
  5 C2         -0.032022   -1.543880    0.103245 C         1 BMO       -0.0429 ****
  6 H2          0.388772   -2.474888   -0.273095 H         1 BMO        0.1057 ****
  7 O2         -0.066547   -1.550012    1.504047 O         1 BMO       -0.6107 ****
  8 HO2        -0.169873   -2.430813    1.819869 H         1 BMO        0.4591 ****
  9 C3         -1.447276   -1.406027   -0.459192 C         1 BMO        0.1591 ****
 10 H3         -1.386846   -1.477181   -1.549446 H         1 BMO        0.0516 ****
 11 O3         -2.273731   -2.420086    0.043691 O         1 BMO       -0.6480 ****
 12 HO3        -2.237300   -3.179543   -0.512596 H         1 BMO        0.4380 ****
 13 C4         -2.036990   -0.046228   -0.108559 C         1 BMO        0.0956 ****
 14 H4         -2.194702    0.003532    0.957447 H         1 BMO        0.2163 ****
 15 O4         -3.286112    0.157568   -0.710207 O         1 BMO       -0.6309 ****
 16 HO4        -3.244560   -0.043291   -1.631267 H         1 BMO        0.4209 ****
 17 C5         -1.054804    1.057018   -0.523232 C         1 BMO        0.0020 ****
 18 H5         -0.982857    1.064561   -1.616764 H         1 BMO        0.0806 ****
 19 O5          0.216236    0.833997    0.022767 O         1 BMO       -0.2405 ****
 20 C6         -1.510421    2.439621   -0.100059 C         1 BMO        0.2171 ****
 21 H61        -0.744596    3.151988   -0.398264 H         1 BMO        0.0095 ****
 22 H62        -2.428896    2.673315   -0.630836 H         1 BMO        0.0095 ****
 23 O6         -1.707325    2.461396    1.284348 O         1 BMO       -0.6280 ****
 24 HO6        -2.085921    3.285391    1.539200 H         1 BMO        0.4180 ****
@<TRIPOS>BOND
    1     1     2 1
    2     1     3 1
    3     1     5 1
    4     1    19 1
    5     3     4 1
    6     5     6 1
    7     5     7 1
    8     5     9 1
    9     7     8 1
   10     9    10 1
   11     9    11 1
   12     9    13 1
   13    11    12 1
   14    13    14 1
   15    13    15 1
   16    13    17 1
   17    15    16 1
   18    17    18 1
   19    17    19 1
   20    17    20 1
   21    20    21 1
   22    20    22 1
   23    20    23 1
   24    23    24 1
@<TRIPOS>SUBSTRUCTURE
      1  BMO              1 ****               0 ****  **** 
