@<TRIPOS>MOLECULE
BMB
   22    22     1     0     1 
SMALL
USER_CHARGES
@<TRIPOS>ATOM
  1 C1          0.827809   -0.370435   -0.345635 C         1 BMB        0.0394 ****
  2 H1          0.968653   -0.402864   -1.420166 H         1 BMB        0.1574 ****
  3 NH1         2.111482   -0.431191    0.266074 N         1 BMB       -0.3845 ****
  4 HN1         2.093855   -0.507509    1.258340 H         1 BMB        0.3057 ****
  5 C2         -0.032022   -1.543880    0.103245 C         1 BMB       -0.0429 ****
  6 H2          0.388772   -2.474888   -0.273095 H         1 BMB        0.1057 ****
  7 O2         -0.066547   -1.550012    1.504047 O         1 BMB       -0.6107 ****
  8 HO2        -0.169873   -2.430813    1.819869 H         1 BMB        0.4591 ****
  9 C3         -1.447276   -1.406027   -0.459192 C         1 BMB        0.1591 ****
 10 H3         -1.386846   -1.477181   -1.549446 H         1 BMB        0.0516 ****
 11 O3         -2.273731   -2.420086    0.043691 O         1 BMB       -0.6480 ****
 12 HO3        -2.237300   -3.179543   -0.512596 H         1 BMB        0.4380 ****
 13 C4         -2.036990   -0.046228   -0.108559 C         1 BMB        0.0956 ****
 14 H4         -2.194702    0.003532    0.957447 H         1 BMB        0.2163 ****
 15 C5         -1.054804    1.057018   -0.523232 C         1 BMB        0.0020 ****
 16 H5         -0.982857    1.064561   -1.616764 H         1 BMB        0.0806 ****
 17 O5          0.216236    0.833997    0.022767 O         1 BMB       -0.2405 ****
 18 C6         -1.510421    2.439621   -0.100059 C         1 BMB        0.2171 ****
 19 H61        -0.744596    3.151988   -0.398264 H         1 BMB        0.0095 ****
 20 H62        -2.428896    2.673315   -0.630836 H         1 BMB        0.0095 ****
 21 O6         -1.707325    2.461396    1.284348 O         1 BMB       -0.6280 ****
 22 HO6        -2.085921    3.285391    1.539200 H         1 BMB        0.4180 ****
@<TRIPOS>BOND
    1    21    22 1
    2    18    19 1
    3    18    20 1
    4    18    21 1
    5    15    16 1
    6    15    17 1
    7    15    18 1
    8    13    14 1
    9    13    15 1
   10    11    12 1
   11     9    10 1
   12     9    11 1
   13     9    13 1
   14     7     8 1
   15     5     6 1
   16     5     7 1
   17     5     9 1
   18     3     4 1
   19     1     2 1
   20     1     3 1
   21     1     5 1
   22     1    17 1
@<TRIPOS>SUBSTRUCTURE
      1  BMB              1 ****               0 ****  **** 
