@<TRIPOS>MOLECULE
TLA
  203   217     5     0     1 
SMALL
USER_CHARGES
@<TRIPOS>ATOM
  1 C1      3.540003    1.419779    0.000002 c2    1 TLA    -0.2237 ****
  2 H1      3.856863    0.400117   -0.186936 ha    1 TLA     0.1084 ****
  3 H2      2.633801    1.566847    0.580144 ha    1 TLA     0.1084 ****
  4 C2      4.242985    2.459659   -0.471959 c2    1 TLA    -0.1965 ****
  5 H3      5.141657    2.253688   -1.047748 ha    1 TLA     0.1299 ****
  6 C3      3.918057    3.913598   -0.288977 c3    1 TLA     0.1483 ****
  7 H4      3.798107    4.379492   -1.273746 h1    1 TLA     0.0436 ****
  8 H5      4.747852    4.399433    0.234884 h1    1 TLA     0.0436 ****
  9 O1      2.717803    4.074682    0.460167 os    1 TLA    -0.4504 ****
 10 C4      2.407794    5.450988    0.681211 c3    1 TLA     0.0940 ****
 11 H6      2.280870    5.951786   -0.285385 h1    1 TLA     0.0447 ****
 12 H7      3.235645    5.926858    1.215108 h1    1 TLA     0.0447 ****
 13 C5      1.105081    5.567027    1.479019 c3    1 TLA     0.1082 ****
 14 H8      0.821234    6.617659    1.599962 h1    1 TLA     0.0544 ****
 15 H9      0.302769    5.068885    0.922813 h1    1 TLA     0.0544 ****
 16 O2      1.140044    4.938844    2.765405 os    1 TLA    -0.4500 ****
 17 C6      2.049071    5.540797    3.681429 c3    1 TLA     0.0877 ****
 18 H10     1.895080    6.626234    3.720443 h1    1 TLA     0.0472 ****
 19 H11     3.078850    5.359782    3.359520 h1    1 TLA     0.0472 ****
 20 C7      1.827002    4.939743    5.068586 c3    1 TLA     0.1093 ****
 21 H12     0.816373    5.194715    5.407457 h1    1 TLA     0.0566 ****
 22 H13     1.871936    3.845048    5.039603 h1    1 TLA     0.0566 ****
 23 O3      2.747154    5.479787    6.020727 os    1 TLA    -0.4492 ****
 24 C8      3.986827    4.761913    6.085727 c3    1 TLA     0.0762 ****
 25 H14     4.297910    4.404790    5.098451 h1    1 TLA     0.0515 ****
 26 H15     4.736115    5.477126    6.443853 h1    1 TLA     0.0515 ****
 27 C9      3.869761    3.613635    7.086995 c3    1 TLA     0.1055 ****
 28 H16     4.818634    3.078666    7.176980 h1    1 TLA     0.0490 ****
 29 H17     3.090975    2.904872    6.794084 h1    1 TLA     0.0490 ****
 30 O1      3.511411    4.175735    8.349062 os    2 COR    -0.2973 ****
 31 C2      3.347331    3.332447    9.413659 ca    2 COR     0.1387 ****
 32 C30     3.497664    1.946735    9.392703 ca    2 COR    -0.1659 ****
 33 C29     3.299055    1.200258   10.560318 ca    2 COR    -0.0772 ****
 34 H21     3.421603    0.118662   10.527851 ha    2 COR     0.1533 ****
 35 H22     3.767881    1.412138    8.488041 ha    2 COR     0.1577 ****
 36 C3      2.997614    3.962576   10.609256 ca    2 COR    -0.1659 ****
 37 H4      2.878056    5.042687   10.634437 ha    2 COR     0.1577 ****
 38 C4      2.799198    3.218080   11.775773 ca    2 COR    -0.0772 ****
 39 H5      2.527106    3.732664   12.696148 ha    2 COR     0.1533 ****
 40 C5      2.950964    1.826363   11.766234 cp    2 COR    -0.0718 ****
 41 C6      2.742167    1.037218   12.989955 cp    2 COR    -0.0163 ****
 42 C7      1.449435    0.556147   13.251927 ca    2 COR    -0.1082 ****
 43 C8      1.183719   -0.198547   14.391004 ca    2 COR    -0.1054 ****
 44 C9      2.203732   -0.493248   15.300471 ca    2 COR    -0.0299 ****
 45 C10     1.933474   -1.250615   16.441598 ca    2 COR    -0.1073 ****
 46 C11     2.946041   -1.548931   17.353596 ca    2 COR    -0.1045 ****
 47 H9      2.682355   -2.143548   18.226992 ha    2 COR     0.1560 ****
 48 H8      0.929492   -1.621426   16.637210 ha    2 COR     0.1462 ****
 49 H7      0.169363   -0.554368   14.558983 ha    2 COR     0.1473 ****
 50 H6      0.638871    0.771865   12.558965 ha    2 COR     0.1495 ****
 51 C26     3.793028    0.749288   13.905224 ca    2 COR    -0.0181 ****
 52 C25     5.115972    1.195388   13.715237 ca    2 COR    -0.1045 ****
 53 C24     6.128664    0.898398   14.627528 ca    2 COR    -0.1073 ****
 54 C23     5.858934    0.140263   15.768270 ca    2 COR    -0.0299 ****
 55 C22     6.878657   -0.153731   16.678290 ca    2 COR    -0.1054 ****
 56 C21     6.612147   -0.908754   17.816963 ca    2 COR    -0.1082 ****
 57 H17     7.423840   -1.124074   18.510297 ha    2 COR     0.1495 ****
 58 H18     7.893017    0.202079   16.510307 ha    2 COR     0.1473 ****
 59 H19     7.132642    1.269211   14.431898 ha    2 COR     0.1462 ****
 60 H20     5.379940    1.791070   12.842651 ha    2 COR     0.1560 ****
 61 C27     3.515824   -0.022408   15.065778 ca    2 COR    -0.0145 ****
 62 C28     4.545988   -0.329551   16.002742 ca    2 COR    -0.0145 ****
 63 C12     4.268785   -1.101245   17.163296 ca    2 COR    -0.0181 ****
 64 C13     5.320680   -1.390096   18.078642 cp    2 COR    -0.0163 ****
 65 C14     5.111391   -2.178490   19.302764 cp    2 COR    -0.0718 ****
 66 C20     5.265531   -3.570957   19.294025 ca    2 COR    -0.0772 ****
 67 C19     5.067457   -4.314350   20.461303 ca    2 COR    -0.1659 ****
 68 H15     5.189389   -5.395221   20.436906 ha    2 COR     0.1577 ****
 69 H16     5.538473   -4.085302   18.374951 ha    2 COR     0.1533 ****
 70 C15     4.760910   -1.551952   20.508178 ca    2 COR    -0.0772 ****
 71 H10     4.636135   -0.470613   20.540729 ha    2 COR     0.1533 ****
 72 C16     4.561812   -2.297656   21.676204 ca    2 COR    -0.1659 ****
 73 H11     4.289835   -1.763699   22.579516 ha    2 COR     0.1577 ****
 74 C17     4.715442   -3.684040   21.657121 ca    2 COR     0.1387 ****
 75 O2      4.551895   -4.527201   22.720615 os    2 COR    -0.2973 ****
 76 C11     4.751380   -5.925460   22.515037 c3    3 BRD     0.1186 ****
 77 H9      5.772352   -6.117555   22.172177 h1    3 BRD     0.0449 ****
 78 H10     4.053055   -6.302696   21.760677 h1    3 BRD     0.0449 ****
 79 C10     4.508286   -6.627626   23.847908 c3    3 BRD     0.0891 ****
 80 H7      4.885596   -7.652840   23.789516 h1    3 BRD     0.0452 ****
 81 H8      5.018643   -6.088381   24.655473 h1    3 BRD     0.0452 ****
 82 O3      3.099641   -6.660381   24.108934 os    3 BRD    -0.4489 ****
 83 C9      2.791419   -7.202990   25.393364 c3    3 BRD     0.1650 ****
 84 H5      1.760273   -6.920610   25.630056 h1    3 BRD     0.0519 ****
 85 H6      3.431749   -6.748617   26.158046 h1    3 BRD     0.0519 ****
 86 C8      2.878748   -8.709428   25.403349 ca    3 BRD    -0.1119 ****
 87 C12     3.571943   -9.378342   26.417862 ca    3 BRD    -0.1234 ****
 88 C13     3.636595  -10.775783   26.431233 ca    3 BRD    -0.1229 ****
 89 H13     4.176569  -11.266429   27.239698 ha    3 BRD     0.1303 ****
 90 H12     4.067070   -8.818729   27.208701 ha    3 BRD     0.1348 ****
 91 C7      2.240555   -9.465713   24.411611 ca    3 BRD    -0.1234 ****
 92 H4      1.693393   -8.963881   23.616298 ha    3 BRD     0.1348 ****
 93 C6      2.306652  -10.862050   24.428232 ca    3 BRD    -0.1229 ****
 94 H3      1.812456  -11.417786   23.634084 ha    3 BRD     0.1303 ****
 95 C5      3.005959  -11.542440   25.437814 cp    3 BRD    -0.0427 ****
 96 C4      3.074589  -13.013741   25.454952 cp    3 BRD    -0.0521 ****
 97 C3      4.307764  -13.678236   25.533272 ca    3 BRD    -0.0634 ****
 98 C2      4.368230  -15.076810   25.551573 ca    3 BRD    -0.1425 ****
 99 C1      5.657223  -15.805761   25.631669 c     3 BRD     0.6196 ****
100 O1      5.793461  -17.014046   25.643603 o     3 BRD    -0.5800 ****
101 O2      6.720958  -14.985410   25.698868 oh    3 BRD    -0.6370 ****
102 H1      7.485656  -15.596448   25.746512 ho    3 BRD     0.4255 ****
103 C25     3.187726  -15.826889   25.489980 ca    3 BRD    -0.0634 ****
104 H26     3.247365  -16.916254   25.492827 ha    3 BRD     0.1533 ****
105 H2      5.226641  -13.096672   25.567801 ha    3 BRD     0.1533 ****
106 C14     1.904444  -13.792762   25.395497 ca    3 BRD    -0.0810 ****
107 H14     0.938328  -13.289268   25.360652 ha    3 BRD     0.1384 ****
108 C15     1.937782  -15.198279   25.411285 cp    3 BRD    -0.0521 ****
109 C16     0.695377  -15.987139   25.349170 cp    3 BRD    -0.0427 ****
110 C24     0.420081  -16.979599   26.303345 ca    3 BRD    -0.1229 ****
111 C23    -0.758939  -17.730359   26.244423 ca    3 BRD    -0.1234 ****
112 H24    -0.945758  -18.491476   26.999105 ha    3 BRD     0.1348 ****
113 H25     1.120403  -17.172652   27.113297 ha    3 BRD     0.1303 ****
114 C17    -0.251676  -15.770138   24.335652 ca    3 BRD    -0.1229 ****
115 H15    -0.070276  -15.014859   23.572391 ha    3 BRD     0.1303 ****
116 C18    -1.430243  -16.519501   24.273702 ca    3 BRD    -0.1234 ****
117 H16    -2.138548  -16.321626   23.471895 ha    3 BRD     0.1348 ****
118 C19    -1.691383  -17.512510   25.223933 ca    3 BRD    -0.1119 ****
119 C20    -2.968379  -18.314545   25.168238 c3    3 BRD     0.1650 ****
120 H17    -3.533121  -18.124889   24.248285 h1    3 BRD     0.0519 ****
121 H18    -3.603680  -18.005721   26.006234 h1    3 BRD     0.0519 ****
122 O5     -2.721991  -19.715890   25.311161 os    3 BRD    -0.4489 ****
123 C21    -2.254471  -20.314599   24.093706 c3    3 BRD     0.0891 ****
124 H19    -1.329343  -19.836149   23.758952 h1    3 BRD     0.0452 ****
125 H20    -3.030330  -20.203490   23.327604 h1    3 BRD     0.0452 ****
126 C22    -2.002822  -21.793729   24.366605 c3    3 BRD     0.1186 ****
127 H21    -1.271328  -21.923000   25.171111 h1    3 BRD     0.0449 ****
128 H22    -1.642749  -22.302434   23.468710 h1    3 BRD     0.0449 ****
129 O1     -3.246827  -22.380479   24.747868 os    4 COR    -0.2973 ****
130 C2     -3.272233  -23.715472   25.045480 ca    4 COR     0.1387 ****
131 C30    -2.181811  -24.583360   25.014078 ca    4 COR    -0.1659 ****
132 C29    -2.348317  -25.933754   25.343793 ca    4 COR    -0.0772 ****
133 H21    -1.486339  -26.598681   25.315739 ha    4 COR     0.1533 ****
134 H22    -1.187941  -24.246878   24.737986 ha    4 COR     0.1577 ****
135 C3     -4.526602  -24.209063   25.408442 ca    4 COR    -0.1659 ****
136 H4     -5.382317  -23.539286   25.435279 ha    4 COR     0.1577 ****
137 C4     -4.693889  -25.557328   25.737992 ca    4 COR    -0.0772 ****
138 H5     -5.682354  -25.918414   26.018126 ha    4 COR     0.1533 ****
139 C5     -3.604672  -26.436517   25.712858 cp    4 COR    -0.0718 ****
140 C6     -3.774448  -27.856552   26.057125 cp    4 COR    -0.0163 ****
141 C7     -4.089413  -28.752720   25.023251 ca    4 COR    -0.1082 ****
142 C8     -4.261697  -30.109922   25.280128 ca    4 COR    -0.1054 ****
143 C9     -4.123955  -30.609103   26.578684 ca    4 COR    -0.0299 ****
144 C10    -4.297238  -31.970876   26.832384 ca    4 COR    -0.1073 ****
145 C11    -4.161245  -32.476476   28.125404 ca    4 COR    -0.1045 ****
146 H9     -4.306025  -33.546206   28.269062 ha    4 COR     0.1560 ****
147 H8     -4.539652  -32.659690   26.025839 ha    4 COR     0.1462 ****
148 H7     -4.504340  -30.773196   24.452519 ha    4 COR     0.1473 ****
149 H6     -4.201462  -28.388529   24.004156 ha    4 COR     0.1495 ****
150 C26    -3.632276  -28.345652   27.385845 ca    4 COR    -0.0181 ****
151 C25    -3.318415  -27.512302   28.477771 ca    4 COR    -0.1045 ****
152 C24    -3.183505  -28.017174   29.771188 ca    4 COR    -0.1073 ****
153 C23    -3.355799  -29.379039   30.025067 ca    4 COR    -0.0299 ****
154 C22    -3.218994  -29.878210   31.323727 ca    4 COR    -0.1054 ****
155 C21    -3.391141  -31.235603   31.579682 ca    4 COR    -0.1082 ****
156 H17    -3.279127  -31.599433   32.599977 ha    4 COR     0.1495 ****
157 H18    -2.976339  -29.214939   32.151334 ha    4 COR     0.1473 ****
158 H19    -2.941083  -27.328349   30.577721 ha    4 COR     0.1462 ****
159 H20    -3.174743  -26.442321   28.334874 ha    4 COR     0.1560 ****
160 C27    -3.808408  -29.732288   27.641691 ca    4 COR    -0.0145 ****
161 C28    -3.672327  -30.255279   28.961327 ca    4 COR    -0.0145 ****
162 C12    -3.848461  -31.641915   29.217174 ca    4 COR    -0.0181 ****
163 C13    -3.705233  -32.131367   30.546722 cp    4 COR    -0.0163 ****
164 C14    -3.875979  -33.551319   30.890848 cp    4 COR    -0.0718 ****
165 C20    -2.785679  -34.430824   30.868072 ca    4 COR    -0.0772 ****
166 C19    -2.954049  -35.778759   31.198415 ca    4 COR    -0.1659 ****
167 H15    -2.097236  -36.448846   31.173930 ha    4 COR     0.1577 ****
168 H16    -1.797751  -34.070196   30.589344 ha    4 COR     0.1533 ****
169 C15    -5.133351  -34.054187   31.257653 ca    4 COR    -0.0772 ****
170 H10    -5.996093  -33.390173   31.283804 ha    4 COR     0.1533 ****
171 C16    -5.300847  -35.404491   31.587236 ca    4 COR    -0.1659 ****
172 H11    -6.294231  -35.741029   31.861072 ha    4 COR     0.1577 ****
173 C17    -4.209608  -36.273084   31.559530 ca    4 COR     0.1387 ****
174 O2     -4.234290  -37.607083   31.857065 os    4 COR    -0.2973 ****
175 C9     -3.014402  -38.343468   31.774635 c3    5 TLB     0.1055 ****
176 H16    -2.272320  -37.927324   32.460775 h1    5 TLB     0.0490 ****
177 H17    -2.612621  -38.300576   30.759065 h1    5 TLB     0.0490 ****
178 C8     -3.321694  -39.791458   32.153689 c3    5 TLB     0.0762 ****
179 H14    -3.683217  -39.869573   33.184331 h1    5 TLB     0.0515 ****
180 H15    -2.407265  -40.389010   32.064432 h1    5 TLB     0.0515 ****
181 O3     -4.257754  -40.350632   31.222308 os    5 TLB    -0.4492 ****
182 C7     -5.622771  -40.122459   31.582263 c3    5 TLB     0.1093 ****
183 H12    -6.211182  -40.125801   30.657613 h1    5 TLB     0.0566 ****
184 H13    -5.762319  -39.131447   32.029071 h1    5 TLB     0.0566 ****
185 C6     -6.144171  -41.224474   32.503397 c3    5 TLB     0.0877 ****
186 H10    -6.088581  -42.192112   31.989591 h1    5 TLB     0.0472 ****
187 H11    -5.519859  -41.284630   33.399752 h1    5 TLB     0.0472 ****
188 O2     -7.488661  -40.926785   32.866033 os    5 TLB    -0.4500 ****
189 C5     -8.156909  -41.989431   33.555129 c3    5 TLB     0.1082 ****
190 H8     -8.164917  -42.880799   32.919185 h1    5 TLB     0.0544 ****
191 H9     -9.195290  -41.661354   33.679007 h1    5 TLB     0.0544 ****
192 C4     -7.572744  -42.317729   34.932806 c3    5 TLB     0.0940 ****
193 H6     -8.152162  -43.132473   35.381898 h1    5 TLB     0.0447 ****
194 H7     -6.529613  -42.636383   34.848114 h1    5 TLB     0.0447 ****
195 O1     -7.647902  -41.167574   35.775824 os    5 TLB    -0.4504 ****
196 C3     -7.125580  -41.425589   37.075202 c3    5 TLB     0.1483 ****
197 H4     -7.714771  -42.215848   37.554327 h1    5 TLB     0.0436 ****
198 H5     -6.085131  -41.757414   36.995300 h1    5 TLB     0.0436 ****
199 C2     -7.178324  -40.191105   37.927416 c2    5 TLB    -0.1965 ****
200 H3     -6.808129  -40.311447   38.942326 ha    5 TLB     0.1299 ****
201 C1     -7.630575  -38.984457   37.556268 c2    5 TLB    -0.2237 ****
202 H1     -7.628843  -38.149973   38.248142 ha    5 TLB     0.1084 ****
203 H2     -8.012977  -38.807538   36.555336 ha    5 TLB     0.1084 ****
@<TRIPOS>BOND
    1    27    28 1
    2    27    29 1
    3    27    30 1
    4    24    25 1
    5    24    26 1
    6    24    27 1
    7    23    24 1
    8    20    21 1
    9    20    22 1
   10    20    23 1
   11    17    18 1
   12    17    19 1
   13    17    20 1
   14    16    17 1
   15    13    14 1
   16    13    15 1
   17    13    16 1
   18    10    11 1
   19    10    12 1
   20    10    13 1
   21     9    10 1
   22     6     7 1
   23     6     8 1
   24     6     9 1
   25     4     5 1
   26     4     6 1
   27     1     2 1
   28     1     3 1
   29     1     4 1
   30    75    76 1
   31    74    75 1
   32    72    73 1
   33    72    74 1
   34    70    71 1
   35    70    72 1
   36    67    68 1
   37    67    74 1
   38    66    67 1
   39    66    69 1
   40    65    66 1
   41    65    70 1
   42    64    65 1
   43    63    64 1
   44    62    63 1
   45    61    62 1
   46    56    57 1
   47    56    64 1
   48    55    56 1
   49    55    58 1
   50    54    55 1
   51    54    62 1
   52    53    54 1
   53    53    59 1
   54    52    53 1
   55    52    60 1
   56    51    52 1
   57    51    61 1
   58    46    47 1
   59    46    63 1
   60    45    46 1
   61    45    48 1
   62    44    45 1
   63    44    61 1
   64    43    44 1
   65    43    49 1
   66    42    43 1
   67    42    50 1
   68    41    42 1
   69    41    51 1
   70    40    41 1
   71    38    39 1
   72    38    40 1
   73    36    37 1
   74    36    38 1
   75    33    34 1
   76    33    40 1
   77    32    33 1
   78    32    35 1
   79    31    32 1
   80    31    36 1
   81    30    31 1
   82   126   127 1
   83   126   128 1
   84   126   129 1
   85   123   124 1
   86   123   125 1
   87   123   126 1
   88   122   123 1
   89   119   120 1
   90   119   121 1
   91   119   122 1
   92   118   119 1
   93   116   117 1
   94   116   118 1
   95   114   115 1
   96   114   116 1
   97   111   112 1
   98   111   118 1
   99   110   111 1
  100   110   113 1
  101   109   110 1
  102   109   114 1
  103   108   109 1
  104   106   107 1
  105   106   108 1
  106   103   104 1
  107   103   108 1
  108   101   102 1
  109    99   100 1
  110    99   101 1
  111    98    99 1
  112    98   103 1
  113    97    98 1
  114    97   105 1
  115    96    97 1
  116    96   106 1
  117    95    96 1
  118    93    94 1
  119    93    95 1
  120    91    92 1
  121    91    93 1
  122    88    89 1
  123    88    95 1
  124    87    88 1
  125    87    90 1
  126    86    87 1
  127    86    91 1
  128    83    84 1
  129    83    85 1
  130    83    86 1
  131    82    83 1
  132    79    80 1
  133    79    81 1
  134    79    82 1
  135    76    77 1
  136    76    78 1
  137    76    79 1
  138   174   175 1
  139   173   174 1
  140   171   172 1
  141   171   173 1
  142   169   170 1
  143   169   171 1
  144   166   167 1
  145   166   173 1
  146   165   166 1
  147   165   168 1
  148   164   165 1
  149   164   169 1
  150   163   164 1
  151   162   163 1
  152   161   162 1
  153   160   161 1
  154   155   156 1
  155   155   163 1
  156   154   155 1
  157   154   157 1
  158   153   154 1
  159   153   161 1
  160   152   153 1
  161   152   158 1
  162   151   152 1
  163   151   159 1
  164   150   151 1
  165   150   160 1
  166   145   146 1
  167   145   162 1
  168   144   145 1
  169   144   147 1
  170   143   144 1
  171   143   160 1
  172   142   143 1
  173   142   148 1
  174   141   142 1
  175   141   149 1
  176   140   141 1
  177   140   150 1
  178   139   140 1
  179   137   138 1
  180   137   139 1
  181   135   136 1
  182   135   137 1
  183   132   133 1
  184   132   139 1
  185   131   132 1
  186   131   134 1
  187   130   131 1
  188   130   135 1
  189   129   130 1
  190   201   202 1
  191   201   203 1
  192   199   200 1
  193   199   201 1
  194   196   197 1
  195   196   198 1
  196   196   199 1
  197   195   196 1
  198   192   193 1
  199   192   194 1
  200   192   195 1
  201   189   190 1
  202   189   191 1
  203   189   192 1
  204   188   189 1
  205   185   186 1
  206   185   187 1
  207   185   188 1
  208   182   183 1
  209   182   184 1
  210   182   185 1
  211   181   182 1
  212   178   179 1
  213   178   180 1
  214   178   181 1
  215   175   176 1
  216   175   177 1
  217   175   178 1
@<TRIPOS>SUBSTRUCTURE
      1  TLA              1 ****               0 ****  **** 
      2  COR             30 ****               0 ****  **** 
      3  BRD             76 ****               0 ****  **** 
      4  COR            129 ****               0 ****  **** 
      5  TLB            175 ****               0 ****  **** 
