@<TRIPOS>MOLECULE
TLA
  104   109     3     0     1 
SMALL
USER_CHARGES
@<TRIPOS>ATOM
  1 C1      3.540003    1.419779    0.000002 c2    1 TLA    -0.2237 ****
  2 H1      3.856863    0.400117   -0.186936 ha    1 TLA     0.1084 ****
  3 H2      2.633801    1.566847    0.580144 ha    1 TLA     0.1084 ****
  4 C2      4.242985    2.459659   -0.471959 c2    1 TLA    -0.1965 ****
  5 H3      5.141657    2.253688   -1.047748 ha    1 TLA     0.1299 ****
  6 C3      3.918057    3.913598   -0.288977 c3    1 TLA     0.1483 ****
  7 H4      3.798107    4.379492   -1.273746 h1    1 TLA     0.0436 ****
  8 H5      4.747852    4.399433    0.234884 h1    1 TLA     0.0436 ****
  9 O1      2.717803    4.074682    0.460167 os    1 TLA    -0.4504 ****
 10 C4      2.407794    5.450988    0.681211 c3    1 TLA     0.0940 ****
 11 H6      2.280870    5.951786   -0.285385 h1    1 TLA     0.0447 ****
 12 H7      3.235645    5.926858    1.215108 h1    1 TLA     0.0447 ****
 13 C5      1.105081    5.567027    1.479019 c3    1 TLA     0.1082 ****
 14 H8      0.821234    6.617659    1.599962 h1    1 TLA     0.0544 ****
 15 H9      0.302769    5.068885    0.922813 h1    1 TLA     0.0544 ****
 16 O2      1.140044    4.938844    2.765405 os    1 TLA    -0.4500 ****
 17 C6      2.049071    5.540797    3.681429 c3    1 TLA     0.0877 ****
 18 H10     1.895080    6.626234    3.720443 h1    1 TLA     0.0472 ****
 19 H11     3.078850    5.359782    3.359520 h1    1 TLA     0.0472 ****
 20 C7      1.827002    4.939743    5.068586 c3    1 TLA     0.1093 ****
 21 H12     0.816373    5.194715    5.407457 h1    1 TLA     0.0566 ****
 22 H13     1.871936    3.845048    5.039603 h1    1 TLA     0.0566 ****
 23 O3      2.747154    5.479787    6.020727 os    1 TLA    -0.4492 ****
 24 C8      3.986827    4.761913    6.085727 c3    1 TLA     0.0762 ****
 25 H14     4.297910    4.404790    5.098451 h1    1 TLA     0.0515 ****
 26 H15     4.736115    5.477126    6.443853 h1    1 TLA     0.0515 ****
 27 C9      3.869761    3.613635    7.086995 c3    1 TLA     0.1055 ****
 28 H16     4.818634    3.078666    7.176980 h1    1 TLA     0.0490 ****
 29 H17     3.090975    2.904872    6.794084 h1    1 TLA     0.0490 ****
 30 O1      3.511411    4.175735    8.349062 os    2 COR    -0.2973 ****
 31 C2      3.347331    3.332447    9.413659 ca    2 COR     0.1387 ****
 32 C30     3.497664    1.946735    9.392703 ca    2 COR    -0.1659 ****
 33 C29     3.299055    1.200258   10.560318 ca    2 COR    -0.0772 ****
 34 H21     3.421603    0.118662   10.527851 ha    2 COR     0.1533 ****
 35 H22     3.767881    1.412138    8.488041 ha    2 COR     0.1577 ****
 36 C3      2.997614    3.962576   10.609256 ca    2 COR    -0.1659 ****
 37 H4      2.878056    5.042687   10.634437 ha    2 COR     0.1577 ****
 38 C4      2.799198    3.218080   11.775773 ca    2 COR    -0.0772 ****
 39 H5      2.527106    3.732664   12.696148 ha    2 COR     0.1533 ****
 40 C5      2.950964    1.826363   11.766234 cp    2 COR    -0.0718 ****
 41 C6      2.742167    1.037218   12.989955 cp    2 COR    -0.0163 ****
 42 C7      1.449435    0.556147   13.251927 ca    2 COR    -0.1082 ****
 43 C8      1.183719   -0.198547   14.391004 ca    2 COR    -0.1054 ****
 44 C9      2.203732   -0.493248   15.300471 ca    2 COR    -0.0299 ****
 45 C10     1.933474   -1.250615   16.441598 ca    2 COR    -0.1073 ****
 46 C11     2.946041   -1.548931   17.353596 ca    2 COR    -0.1045 ****
 47 H9      2.682355   -2.143548   18.226992 ha    2 COR     0.1560 ****
 48 H8      0.929492   -1.621426   16.637210 ha    2 COR     0.1462 ****
 49 H7      0.169363   -0.554368   14.558983 ha    2 COR     0.1473 ****
 50 H6      0.638871    0.771865   12.558965 ha    2 COR     0.1495 ****
 51 C26     3.793028    0.749288   13.905224 ca    2 COR    -0.0181 ****
 52 C25     5.115972    1.195388   13.715237 ca    2 COR    -0.1045 ****
 53 C24     6.128664    0.898398   14.627528 ca    2 COR    -0.1073 ****
 54 C23     5.858934    0.140263   15.768270 ca    2 COR    -0.0299 ****
 55 C22     6.878657   -0.153731   16.678290 ca    2 COR    -0.1054 ****
 56 C21     6.612147   -0.908754   17.816963 ca    2 COR    -0.1082 ****
 57 H17     7.423840   -1.124074   18.510297 ha    2 COR     0.1495 ****
 58 H18     7.893017    0.202079   16.510307 ha    2 COR     0.1473 ****
 59 H19     7.132642    1.269211   14.431898 ha    2 COR     0.1462 ****
 60 H20     5.379940    1.791070   12.842651 ha    2 COR     0.1560 ****
 61 C27     3.515824   -0.022408   15.065778 ca    2 COR    -0.0145 ****
 62 C28     4.545988   -0.329551   16.002742 ca    2 COR    -0.0145 ****
 63 C12     4.268785   -1.101245   17.163296 ca    2 COR    -0.0181 ****
 64 C13     5.320680   -1.390096   18.078642 cp    2 COR    -0.0163 ****
 65 C14     5.111391   -2.178490   19.302764 cp    2 COR    -0.0718 ****
 66 C20     5.265531   -3.570957   19.294025 ca    2 COR    -0.0772 ****
 67 C19     5.067457   -4.314350   20.461303 ca    2 COR    -0.1659 ****
 68 H15     5.189389   -5.395221   20.436906 ha    2 COR     0.1577 ****
 69 H16     5.538473   -4.085302   18.374951 ha    2 COR     0.1533 ****
 70 C15     4.760910   -1.551952   20.508178 ca    2 COR    -0.0772 ****
 71 H10     4.636135   -0.470613   20.540729 ha    2 COR     0.1533 ****
 72 C16     4.561812   -2.297656   21.676204 ca    2 COR    -0.1659 ****
 73 H11     4.289835   -1.763699   22.579516 ha    2 COR     0.1577 ****
 74 C17     4.715442   -3.684040   21.657121 ca    2 COR     0.1387 ****
 75 O2      4.551895   -4.527201   22.720615 os    2 COR    -0.2973 ****
 76 C9      4.751380   -5.925460   22.515037 c3    3 TLB     0.1055 ****
 77 H16     5.771419   -6.117379   22.172490 h1    3 TLB     0.0490 ****
 78 H17     4.054330   -6.302007   21.762055 h1    3 TLB     0.0490 ****
 79 C8      4.507968   -6.628546   23.849655 c3    3 TLB     0.0762 ****
 80 H14     5.223556   -6.303528   24.612099 h1    3 TLB     0.0515 ****
 81 H15     4.619887   -7.710177   23.712673 h1    3 TLB     0.0515 ****
 82 O3      3.154097   -6.416548   24.272084 os    3 TLB    -0.4492 ****
 83 C7      2.978314   -5.222005   25.038287 c3    3 TLB     0.1093 ****
 84 H12     1.942329   -4.892323   24.899508 h1    3 TLB     0.0566 ****
 85 H13     3.610123   -4.407220   24.666589 h1    3 TLB     0.0566 ****
 86 C6      3.220334   -5.477276   26.525246 c3    3 TLB     0.0877 ****
 87 H10     2.503892   -6.222000   26.893358 h1    3 TLB     0.0472 ****
 88 H11     4.227096   -5.878932   26.673367 h1    3 TLB     0.0472 ****
 89 O2      3.076550   -4.250956   27.234639 os    3 TLB    -0.4500 ****
 90 C5      3.071265   -4.397157   28.659147 c3    3 TLB     0.1082 ****
 91 H8      2.247275   -5.057325   28.949395 h1    3 TLB     0.0544 ****
 92 H9      2.855970   -3.401228   29.062865 h1    3 TLB     0.0544 ****
 93 C4      4.393476   -4.896729   29.250087 c3    3 TLB     0.0940 ****
 94 H6      4.293954   -4.968158   30.339219 h1    3 TLB     0.0447 ****
 95 H7      4.647308   -5.885585   28.856936 h1    3 TLB     0.0447 ****
 96 O1      5.441209   -3.979666   28.933171 os    3 TLB    -0.4504 ****
 97 C3      6.692463   -4.395227   29.471175 c3    3 TLB     0.1483 ****
 98 H4      6.622318   -4.439818   30.564018 h1    3 TLB     0.0436 ****
 99 H5      6.945282   -5.390415   29.090770 h1    3 TLB     0.0436 ****
100 C2      7.783115   -3.437144   29.089655 c2    3 TLB    -0.1965 ****
101 H3      8.769984   -3.679596   29.475498 ha    3 TLB     0.1299 ****
102 C1      7.650148   -2.336944   28.334565 c2    3 TLB    -0.2237 ****
103 H1      8.502242   -1.704204   28.114039 ha    3 TLB     0.1084 ****
104 H2      6.687704   -2.046112   27.924060 ha    3 TLB     0.1084 ****
@<TRIPOS>BOND
    1    77    76 1
    2    78    76 1
    3    79    76 1
    4    80    79 1
    5    81    79 1
    6    82    79 1
    7    83    82 1
    8    84    83 1
    9    85    83 1
   10    86    83 1
   11    87    86 1
   12    88    86 1
   13    89    86 1
   14    90    89 1
   15    91    90 1
   16    92    90 1
   17    93    90 1
   18    94    93 1
   19    95    93 1
   20    96    93 1
   21    97    96 1
   22    98    97 1
   23    99    97 1
   24   100    97 1
   25   101   100 1
   26   102   100 1
   27   103   102 1
   28   104   102 1
   29    31    30 1
   30    32    31 1
   31    33    32 1
   32    34    33 1
   33    35    32 1
   34    36    31 1
   35    37    36 1
   36    38    36 1
   37    39    38 1
   38    40    38 1
   39    40    33 1
   40    41    40 1
   41    42    41 1
   42    43    42 1
   43    44    43 1
   44    45    44 1
   45    46    45 1
   46    47    46 1
   47    48    45 1
   48    49    43 1
   49    50    42 1
   50    51    41 1
   51    52    51 1
   52    53    52 1
   53    54    53 1
   54    55    54 1
   55    56    55 1
   56    57    56 1
   57    58    55 1
   58    59    53 1
   59    60    52 1
   60    61    51 1
   61    61    44 1
   62    62    61 1
   63    62    54 1
   64    63    62 1
   65    63    46 1
   66    64    63 1
   67    64    56 1
   68    65    64 1
   69    66    65 1
   70    67    66 1
   71    68    67 1
   72    69    66 1
   73    70    65 1
   74    71    70 1
   75    72    70 1
   76    73    72 1
   77    74    72 1
   78    74    67 1
   79    75    74 1
   80    75    76 1
   81     2     1 1
   82     3     1 1
   83     4     1 1
   84     5     4 1
   85     6     4 1
   86     7     6 1
   87     8     6 1
   88     9     6 1
   89    10     9 1
   90    11    10 1
   91    12    10 1
   92    13    10 1
   93    14    13 1
   94    15    13 1
   95    16    13 1
   96    17    16 1
   97    18    17 1
   98    19    17 1
   99    20    17 1
  100    21    20 1
  101    22    20 1
  102    23    20 1
  103    24    23 1
  104    25    24 1
  105    26    24 1
  106    27    24 1
  107    27    30 1
  108    28    27 1
  109    29    27 1
@<TRIPOS>SUBSTRUCTURE
      1  TLA              1 ****               0 ****  **** 
      2  COR             30 ****               0 ****  **** 
      3  TLB             76 ****               0 ****  **** 
