@<TRIPOS>MOLECULE
UNL
   55    57     1     0     0
SMALL
bcc


@<TRIPOS>ATOM
      1 C1          -6.7070    -4.4250    -2.5160 c3         1 UNL      -0.112100
      2 C2          -5.4010    -4.4520    -1.7410 c3         1 UNL       0.121400
      3 O1          -4.4440    -5.2900    -2.3850 os         1 UNL      -0.418100
      4 C3          -3.7050    -4.6380    -3.4180 c3         1 UNL       0.170200
      5 C4          -2.5680    -3.8180    -2.8580 ca         1 UNL      -0.114800
      6 C5          -1.7070    -4.3570    -1.8940 ca         1 UNL      -0.120000
      7 C6          -0.6410    -3.6060    -1.3900 ca         1 UNL      -0.117250
      8 C7          -0.4020    -2.2970    -1.8370 cp         1 UNL      -0.043000
      9 C8           0.7190    -1.5050    -1.3050 cp         1 UNL      -0.049000
     10 C9           2.0300    -2.0030    -1.3270 ca         1 UNL      -0.060500
     11 C10          3.0940    -1.2450    -0.8230 ca         1 UNL      -0.135600
     12 C11          4.4900    -1.7440    -0.8370 c          1 UNL       0.651700
     13 O2           5.4680    -1.1350    -0.4460 o          1 UNL      -0.553000
     14 O3           4.5970    -2.9870    -1.3380 oh         1 UNL      -0.607100
     15 C12          2.8520     0.0270    -0.2880 ca         1 UNL      -0.060500
     16 C13          1.5540     0.5570    -0.2460 cp         1 UNL      -0.049000
     17 C14          1.2970     1.8910     0.3230 cp         1 UNL      -0.043000
     18 C15          0.3210     2.0810     1.3140 ca         1 UNL      -0.117250
     19 C16          0.0750     3.3470     1.8570 ca         1 UNL      -0.120000
     20 C17          0.8060     4.4590     1.4260 ca         1 UNL      -0.114800
     21 C18          0.5260     5.8290     1.9930 c3         1 UNL       0.170200
     22 O4           1.7250     6.5500     2.2810 os         1 UNL      -0.418100
     23 C19          2.3260     6.1470     3.5110 c3         1 UNL       0.121400
     24 C20          3.5860     6.9670     3.7150 c3         1 UNL      -0.112100
     25 C21          1.7740     4.2820     0.4300 ca         1 UNL      -0.120000
     26 C22          2.0190     3.0150    -0.1100 ca         1 UNL      -0.117250
     27 C23          0.5040    -0.2250    -0.7610 ca         1 UNL      -0.078000
     28 C24         -1.2650    -1.7670    -2.8100 ca         1 UNL      -0.117250
     29 C25         -2.3320    -2.5170    -3.3170 ca         1 UNL      -0.120000
     30 H1          -7.0800    -5.4420    -2.6770 hc         1 UNL       0.044033
     31 H2          -7.4650    -3.8530    -1.9740 hc         1 UNL       0.044033
     32 H3          -6.5750    -3.9730    -3.5040 hc         1 UNL       0.044033
     33 H4          -5.0100    -3.4400    -1.5870 h1         1 UNL       0.040200
     34 H5          -5.5880    -4.8830    -0.7510 h1         1 UNL       0.040200
     35 H6          -4.3690    -4.0350    -4.0470 h1         1 UNL       0.057700
     36 H7          -3.2770    -5.4180    -4.0580 h1         1 UNL       0.057700
     37 H8          -1.8700    -5.3680    -1.5260 ha         1 UNL       0.141250
     38 H9          -0.0000    -4.0520    -0.6310 ha         1 UNL       0.137250
     39 H10          2.2210    -2.9860    -1.7540 ha         1 UNL       0.161500
     40 H11          5.5560    -3.1790    -1.2850 ho         1 UNL       0.447000
     41 H12          3.6850     0.6040     0.1130 ha         1 UNL       0.161500
     42 H13         -0.2550     1.2330     1.6830 ha         1 UNL       0.137250
     43 H14         -0.6910     3.4520     2.6220 ha         1 UNL       0.141250
     44 H15         -0.0280     6.4010     1.2400 h1         1 UNL       0.057700
     45 H16         -0.1050     5.7790     2.8890 h1         1 UNL       0.057700
     46 H17          1.6310     6.3260     4.3380 h1         1 UNL       0.040200
     47 H18          2.5810     5.0830     3.4800 h1         1 UNL       0.040200
     48 H19          4.0820     6.6940     4.6500 hc         1 UNL       0.044033
     49 H20          4.2840     6.8120     2.8850 hc         1 UNL       0.044033
     50 H21          3.3500     8.0360     3.7380 hc         1 UNL       0.044033
     51 H22          2.3490     5.1350     0.0730 ha         1 UNL       0.141250
     52 H23          2.7770     2.9160    -0.8840 ha         1 UNL       0.137250
     53 H24         -0.5110     0.1730    -0.7370 ha         1 UNL       0.144000
     54 H25         -1.1040    -0.7610    -3.1930 ha         1 UNL       0.137250
     55 H26         -2.9740    -2.0750    -4.0750 ha         1 UNL       0.141250
@<TRIPOS>BOND
     1     1     2 1   
     2     1    30 1   
     3     1    31 1   
     4     1    32 1   
     5     2     3 1   
     6     2    33 1   
     7     2    34 1   
     8     3     4 1   
     9     4     5 1   
    10     4    35 1   
    11     4    36 1   
    12     5     6 ar  
    13     5    29 ar  
    14     6     7 ar  
    15     6    37 1   
    16     7     8 ar  
    17     7    38 1   
    18     8     9 1   
    19     8    28 ar  
    20     9    10 ar  
    21     9    27 ar  
    22    10    11 ar  
    23    10    39 1   
    24    11    12 1   
    25    11    15 ar  
    26    12    13 2   
    27    12    14 1   
    28    14    40 1   
    29    15    16 ar  
    30    15    41 1   
    31    16    17 1   
    32    16    27 ar  
    33    17    18 ar  
    34    17    26 ar  
    35    18    19 ar  
    36    18    42 1   
    37    19    20 ar  
    38    19    43 1   
    39    20    21 1   
    40    20    25 ar  
    41    21    22 1   
    42    21    44 1   
    43    21    45 1   
    44    22    23 1   
    45    23    24 1   
    46    23    46 1   
    47    23    47 1   
    48    24    48 1   
    49    24    49 1   
    50    24    50 1   
    51    25    26 ar  
    52    25    51 1   
    53    26    52 1   
    54    27    53 1   
    55    28    29 ar  
    56    28    54 1   
    57    29    55 1   
@<TRIPOS>SUBSTRUCTURE
     1 UNL         1 TEMP              0 ****  ****    0 ROOT
