@<TRIPOS>MOLECULE
UNL
   55    57     1     0     0
SMALL
bcc


@<TRIPOS>ATOM
      1 C1           3.3760     3.6050     4.0710 c3         1 UNL      -0.114100
      2 C2           4.7660     3.8330     3.5040 c3         1 UNL       0.125400
      3 O1           4.8160     3.6670     2.0890 os         1 UNL      -0.419100
      4 C3           4.7300     2.3100     1.6500 c3         1 UNL       0.171200
      5 C4           3.3440     1.9680     1.1580 ca         1 UNL      -0.112300
      6 C5           2.5940     2.8900     0.4180 ca         1 UNL      -0.119250
      7 C6           1.3220     2.5570    -0.0590 ca         1 UNL      -0.118000
      8 C7           0.7670     1.2900     0.1810 cp         1 UNL      -0.043500
      9 C8          -0.5710     0.9390    -0.3240 cp         1 UNL      -0.048500
     10 C9          -1.6810     1.7560    -0.0560 ca         1 UNL      -0.061500
     11 C10         -2.9510     1.4180    -0.5370 ca         1 UNL      -0.135600
     12 C11         -4.1420     2.2600    -0.2680 c          1 UNL       0.651700
     13 O2          -5.2820     2.0140    -0.6150 o          1 UNL      -0.553000
     14 O3          -3.8490     3.3750     0.4240 oh         1 UNL      -0.607100
     15 C12         -3.1240     0.2540    -1.2950 ca         1 UNL      -0.061500
     16 C13         -2.0400    -0.5880    -1.5840 cp         1 UNL      -0.048500
     17 C14         -2.2190    -1.8130    -2.3830 cp         1 UNL      -0.043500
     18 C15         -1.3990    -2.0820    -3.4900 ca         1 UNL      -0.118000
     19 C16         -1.5670    -3.2450    -4.2480 ca         1 UNL      -0.119250
     20 C17         -2.5580    -4.1760    -3.9160 ca         1 UNL      -0.112300
     21 C18         -2.7520    -5.4210    -4.7470 c3         1 UNL       0.171200
     22 O4          -1.5150    -6.0870    -5.0090 os         1 UNL      -0.419100
     23 C19         -1.0710    -6.8760    -3.9080 c3         1 UNL       0.125400
     24 C20          0.2450    -7.5260    -4.2880 c3         1 UNL      -0.114100
     25 C21         -3.3880    -3.9130    -2.8210 ca         1 UNL      -0.119250
     26 C22         -3.2170    -2.7480    -2.0640 ca         1 UNL      -0.118000
     27 C23         -0.7740    -0.2260    -1.0880 ca         1 UNL      -0.078000
     28 C24          1.5310     0.3670     0.9120 ca         1 UNL      -0.118000
     29 C25          2.8040     0.6980     1.3910 ca         1 UNL      -0.119250
     30 H1           3.3430     3.8810     5.1290 hc         1 UNL       0.044867
     31 H2           2.6330     4.1970     3.5280 hc         1 UNL       0.044867
     32 H3           3.0810     2.5550     3.9890 hc         1 UNL       0.044867
     33 H4           5.0610     4.8670     3.7080 h1         1 UNL       0.037450
     34 H5           5.5050     3.1870     3.9900 h1         1 UNL       0.037450
     35 H6           5.4210     2.1980     0.8070 h1         1 UNL       0.056450
     36 H7           5.0600     1.6210     2.4360 h1         1 UNL       0.056450
     37 H8           3.0000     3.8790     0.2100 ha         1 UNL       0.141500
     38 H9           0.7710     3.2980    -0.6350 ha         1 UNL       0.137000
     39 H10         -1.5500     2.6550     0.5430 ha         1 UNL       0.161000
     40 H11         -4.7140     3.8250     0.5230 ho         1 UNL       0.447000
     41 H12         -4.1160     0.0090    -1.6760 ha         1 UNL       0.161000
     42 H13         -0.6230    -1.3780    -3.7830 ha         1 UNL       0.137000
     43 H14         -0.9170    -3.4270    -5.1020 ha         1 UNL       0.141500
     44 H15         -3.1770    -5.1240    -5.7120 h1         1 UNL       0.056450
     45 H16         -3.4610    -6.1170    -4.2830 h1         1 UNL       0.056450
     46 H17         -0.9280    -6.2480    -3.0220 h1         1 UNL       0.037450
     47 H18         -1.8140    -7.6490    -3.6840 h1         1 UNL       0.037450
     48 H19          0.9940    -6.7650    -4.5320 hc         1 UNL       0.044867
     49 H20          0.1230    -8.1510    -5.1790 hc         1 UNL       0.044867
     50 H21          0.6240    -8.1460    -3.4710 hc         1 UNL       0.044867
     51 H22         -4.1740    -4.6110    -2.5430 ha         1 UNL       0.141500
     52 H23         -3.8710    -2.5810    -1.2100 ha         1 UNL       0.137000
     53 H24          0.0800    -0.8680    -1.3030 ha         1 UNL       0.145000
     54 H25          1.1340    -0.6240     1.1250 ha         1 UNL       0.137000
     55 H26          3.3660    -0.0460     1.9510 ha         1 UNL       0.141500
@<TRIPOS>BOND
     1     1     2 1   
     2     1    30 1   
     3     1    31 1   
     4     1    32 1   
     5     2     3 1   
     6     2    33 1   
     7     2    34 1   
     8     3     4 1   
     9     4     5 1   
    10     4    35 1   
    11     4    36 1   
    12     5     6 ar  
    13     5    29 ar  
    14     6     7 ar  
    15     6    37 1   
    16     7     8 ar  
    17     7    38 1   
    18     8     9 1   
    19     8    28 ar  
    20     9    10 ar  
    21     9    27 ar  
    22    10    11 ar  
    23    10    39 1   
    24    11    12 1   
    25    11    15 ar  
    26    12    13 2   
    27    12    14 1   
    28    14    40 1   
    29    15    16 ar  
    30    15    41 1   
    31    16    17 1   
    32    16    27 ar  
    33    17    18 ar  
    34    17    26 ar  
    35    18    19 ar  
    36    18    42 1   
    37    19    20 ar  
    38    19    43 1   
    39    20    21 1   
    40    20    25 ar  
    41    21    22 1   
    42    21    44 1   
    43    21    45 1   
    44    22    23 1   
    45    23    24 1   
    46    23    46 1   
    47    23    47 1   
    48    24    48 1   
    49    24    49 1   
    50    24    50 1   
    51    25    26 ar  
    52    25    51 1   
    53    26    52 1   
    54    27    53 1   
    55    28    29 ar  
    56    28    54 1   
    57    29    55 1   
@<TRIPOS>SUBSTRUCTURE
     1 UNL         1 TEMP              0 ****  ****    0 ROOT
