@<TRIPOS>MOLECULE
UNL
   55    57     1     0     0
SMALL
bcc


@<TRIPOS>ATOM
      1 C1           6.6420    -1.2980     3.8670 c3         1 UNL      -0.113600
      2 C2           5.1860    -1.1990     4.2770 c3         1 UNL       0.125400
      3 O1           4.4930    -2.3260     3.7450 os         1 UNL      -0.420600
      4 C3           3.1010    -2.3190     4.0670 c3         1 UNL       0.171700
      5 C4           2.3170    -1.3900     3.1730 ca         1 UNL      -0.097300
      6 C5           1.3500    -0.5330     3.7100 ca         1 UNL      -0.118500
      7 C6           0.6130     0.3170     2.8770 ca         1 UNL      -0.117500
      8 C7           0.8150     0.3280     1.4880 cp         1 UNL      -0.044000
      9 C8           0.0410     1.2270     0.6150 cp         1 UNL      -0.048500
     10 C9          -0.0310     2.6030     0.8770 ca         1 UNL      -0.061000
     11 C10         -0.7640     3.4580     0.0450 ca         1 UNL      -0.136600
     12 C11         -0.8010     4.9010     0.3840 c          1 UNL       0.651700
     13 O2          -0.2730     5.4200     1.3510 o          1 UNL      -0.554000
     14 O3          -1.4990     5.6310    -0.5040 oh         1 UNL      -0.607100
     15 C12         -1.4380     2.9410    -1.0670 ca         1 UNL      -0.061000
     16 C13         -1.3910     1.5700    -1.3610 cp         1 UNL      -0.048500
     17 C14         -2.1040     1.0210    -2.5260 cp         1 UNL      -0.044000
     18 C15         -1.8900     1.5350    -3.8140 ca         1 UNL      -0.117500
     19 C16         -2.5700     1.0150    -4.9200 ca         1 UNL      -0.118500
     20 C17         -3.4790    -0.0400    -4.7720 ca         1 UNL      -0.097300
     21 C18         -4.2520    -0.5760    -5.9520 c3         1 UNL       0.171700
     22 O4          -3.4100    -0.6380    -7.1030 os         1 UNL      -0.420600
     23 C19         -4.1070    -0.9870    -8.2960 c3         1 UNL       0.125400
     24 C20         -4.4130    -2.4740    -8.3580 c3         1 UNL      -0.113600
     25 C21         -3.7050    -0.5500    -3.4880 ca         1 UNL      -0.118500
     26 C22         -3.0230    -0.0300    -2.3820 ca         1 UNL      -0.117500
     27 C23         -0.6470     0.7320    -0.5090 ca         1 UNL      -0.078000
     28 C24          1.7790    -0.5440     0.9580 ca         1 UNL      -0.117500
     29 C25          2.5170    -1.3940     1.7870 ca         1 UNL      -0.118500
     30 H1           7.0840    -2.2310     4.2320 hc         1 UNL       0.044533
     31 H2           6.7360    -1.3060     2.7760 hc         1 UNL       0.044533
     32 H3           7.2180    -0.4570     4.2640 hc         1 UNL       0.044533
     33 H4           5.1080    -1.2010     5.3700 h1         1 UNL       0.039200
     34 H5           4.7590    -0.2690     3.8890 h1         1 UNL       0.039200
     35 H6           2.9640    -2.0780     5.1280 h1         1 UNL       0.047950
     36 H7           2.7240    -3.3370     3.9160 h1         1 UNL       0.047950
     37 H8           1.1610    -0.5160     4.7800 ha         1 UNL       0.142500
     38 H9          -0.1340     0.9680     3.3260 ha         1 UNL       0.137250
     39 H10          0.5000     3.0180     1.7330 ha         1 UNL       0.161000
     40 H11         -1.4370     6.5450    -0.1570 ho         1 UNL       0.447000
     41 H12         -2.0170     3.6040    -1.7070 ha         1 UNL       0.161000
     42 H13         -1.1790     2.3430    -3.9710 ha         1 UNL       0.137250
     43 H14         -2.3800     1.4330    -5.9070 ha         1 UNL       0.142500
     44 H15         -5.1040     0.0880    -6.1410 h1         1 UNL       0.047950
     45 H16         -4.6240    -1.5820    -5.7240 h1         1 UNL       0.047950
     46 H17         -3.4500    -0.7270    -9.1330 h1         1 UNL       0.039200
     47 H18         -5.0190    -0.3870    -8.3990 h1         1 UNL       0.039200
     48 H19         -4.8250    -2.7410    -9.3350 hc         1 UNL       0.044533
     49 H20         -3.5070    -3.0630    -8.1820 hc         1 UNL       0.044533
     50 H21         -5.1390    -2.7630    -7.5920 hc         1 UNL       0.044533
     51 H22         -4.4170    -1.3590    -3.3340 ha         1 UNL       0.142500
     52 H23         -3.2260    -0.4470    -1.3980 ha         1 UNL       0.137250
     53 H24         -0.6020    -0.3350    -0.7280 ha         1 UNL       0.145000
     54 H25          1.9750    -0.5610    -0.1130 ha         1 UNL       0.137250
     55 H26          3.2620    -2.0550     1.3480 ha         1 UNL       0.142500
@<TRIPOS>BOND
     1     1     2 1   
     2     1    30 1   
     3     1    31 1   
     4     1    32 1   
     5     2     3 1   
     6     2    33 1   
     7     2    34 1   
     8     3     4 1   
     9     4     5 1   
    10     4    35 1   
    11     4    36 1   
    12     5     6 ar  
    13     5    29 ar  
    14     6     7 ar  
    15     6    37 1   
    16     7     8 ar  
    17     7    38 1   
    18     8     9 1   
    19     8    28 ar  
    20     9    10 ar  
    21     9    27 ar  
    22    10    11 ar  
    23    10    39 1   
    24    11    12 1   
    25    11    15 ar  
    26    12    13 2   
    27    12    14 1   
    28    14    40 1   
    29    15    16 ar  
    30    15    41 1   
    31    16    17 1   
    32    16    27 ar  
    33    17    18 ar  
    34    17    26 ar  
    35    18    19 ar  
    36    18    42 1   
    37    19    20 ar  
    38    19    43 1   
    39    20    21 1   
    40    20    25 ar  
    41    21    22 1   
    42    21    44 1   
    43    21    45 1   
    44    22    23 1   
    45    23    24 1   
    46    23    46 1   
    47    23    47 1   
    48    24    48 1   
    49    24    49 1   
    50    24    50 1   
    51    25    26 ar  
    52    25    51 1   
    53    26    52 1   
    54    27    53 1   
    55    28    29 ar  
    56    28    54 1   
    57    29    55 1   
@<TRIPOS>SUBSTRUCTURE
     1 UNL         1 TEMP              0 ****  ****    0 ROOT
