@<TRIPOS>MOLECULE
UNL
   55    57     1     0     0
SMALL
bcc


@<TRIPOS>ATOM
      1 C1          -1.3280    -7.1990     3.3380 c3         1 UNL      -0.096600
      2 C2          -2.0300    -6.5610     2.1560 c3         1 UNL       0.122400
      3 O1          -3.2910    -6.0630     2.6000 os         1 UNL      -0.419600
      4 C3          -4.0320    -5.4300     1.5560 c3         1 UNL       0.171700
      5 C4          -3.5540    -4.0230     1.2920 ca         1 UNL      -0.115300
      6 C5          -3.3060    -3.1420     2.3510 ca         1 UNL      -0.119500
      7 C6          -2.8830    -1.8330     2.1060 ca         1 UNL      -0.117500
      8 C7          -2.7020    -1.3640     0.7950 cp         1 UNL      -0.043000
      9 C8          -2.2560     0.0160     0.5360 cp         1 UNL      -0.049000
     10 C9          -2.9280     1.1100     1.1000 ca         1 UNL      -0.061000
     11 C10         -2.5030     2.4200     0.8490 ca         1 UNL      -0.135600
     12 C11         -3.1960     3.5960     1.4280 c          1 UNL       0.651700
     13 O2          -2.9130     4.7620     1.2230 o          1 UNL      -0.554000
     14 O3          -4.2120     3.2570     2.2410 oh         1 UNL      -0.607100
     15 C12         -1.3930     2.6470     0.0250 ca         1 UNL      -0.061000
     16 C13         -0.6940     1.5790    -0.5550 cp         1 UNL      -0.049000
     17 C14          0.4750     1.8170    -1.4180 cp         1 UNL      -0.043000
     18 C15          1.6940     1.1600    -1.1850 ca         1 UNL      -0.117500
     19 C16          2.8040     1.3850    -2.0040 ca         1 UNL      -0.119500
     20 C17          2.7300     2.2830    -3.0760 ca         1 UNL      -0.115300
     21 C18          3.9220     2.5110    -3.9740 c3         1 UNL       0.171700
     22 O4           5.1330     2.6650    -3.2330 os         1 UNL      -0.419600
     23 C19          5.2780     3.9740    -2.6830 c3         1 UNL       0.122400
     24 C20          6.5840     4.0230    -1.9140 c3         1 UNL      -0.096600
     25 C21          1.5170     2.9340    -3.3240 ca         1 UNL      -0.119500
     26 C22          0.4070     2.7060    -2.5030 ca         1 UNL      -0.117500
     27 C23         -1.1430     0.2730    -0.2870 ca         1 UNL      -0.078000
     28 C24         -2.9630    -2.2510    -0.2610 ca         1 UNL      -0.117500
     29 C25         -3.3870    -3.5620    -0.0190 ca         1 UNL      -0.119500
     30 H1          -1.9330    -8.0100     3.7560 hc         1 UNL       0.044867
     31 H2          -0.3540    -7.6000     3.0430 hc         1 UNL       0.044867
     32 H3          -1.1800    -6.4660     4.1390 hc         1 UNL       0.044867
     33 H4          -1.4160    -5.7460     1.7590 h1         1 UNL       0.029950
     34 H5          -2.1850    -7.3090     1.3700 h1         1 UNL       0.029950
     35 H6          -5.0780    -5.3790     1.8800 h1         1 UNL       0.057450
     36 H7          -4.0050    -6.0480     0.6500 h1         1 UNL       0.057450
     37 H8          -3.4350    -3.4790     3.3790 ha         1 UNL       0.141500
     38 H9          -2.6840    -1.1810     2.9540 ha         1 UNL       0.137250
     39 H10         -3.7990     0.9360     1.7300 ha         1 UNL       0.161500
     40 H11         -4.5670     4.1180     2.5450 ho         1 UNL       0.447000
     41 H12         -1.0630     3.6700    -0.1530 ha         1 UNL       0.161500
     42 H13          1.7940     0.4700    -0.3490 ha         1 UNL       0.137250
     43 H14          3.7370     0.8640    -1.7960 ha         1 UNL       0.141500
     44 H15          3.7760     3.3740    -4.6350 h1         1 UNL       0.057450
     45 H16          4.0390     1.6300    -4.6140 h1         1 UNL       0.057450
     46 H17          5.2970     4.7140    -3.4910 h1         1 UNL       0.029950
     47 H18          4.4460     4.1990    -2.0090 h1         1 UNL       0.029950
     48 H19          6.5870     3.2770    -1.1120 hc         1 UNL       0.044867
     49 H20          6.7410     5.0130    -1.4750 hc         1 UNL       0.044867
     50 H21          7.4280     3.7900    -2.5700 hc         1 UNL       0.044867
     51 H22          1.4220     3.6260    -4.1580 ha         1 UNL       0.141500
     52 H23         -0.5230     3.2250    -2.7260 ha         1 UNL       0.137250
     53 H24         -0.6110    -0.5690    -0.7300 ha         1 UNL       0.145000
     54 H25         -2.8500    -1.9200    -1.2920 ha         1 UNL       0.137250
     55 H26         -3.5860    -4.2170    -0.8640 ha         1 UNL       0.141500
@<TRIPOS>BOND
     1     1     2 1   
     2     1    30 1   
     3     1    31 1   
     4     1    32 1   
     5     2     3 1   
     6     2    33 1   
     7     2    34 1   
     8     3     4 1   
     9     4     5 1   
    10     4    35 1   
    11     4    36 1   
    12     5     6 ar  
    13     5    29 ar  
    14     6     7 ar  
    15     6    37 1   
    16     7     8 ar  
    17     7    38 1   
    18     8     9 1   
    19     8    28 ar  
    20     9    10 ar  
    21     9    27 ar  
    22    10    11 ar  
    23    10    39 1   
    24    11    12 1   
    25    11    15 ar  
    26    12    13 2   
    27    12    14 1   
    28    14    40 1   
    29    15    16 ar  
    30    15    41 1   
    31    16    17 1   
    32    16    27 ar  
    33    17    18 ar  
    34    17    26 ar  
    35    18    19 ar  
    36    18    42 1   
    37    19    20 ar  
    38    19    43 1   
    39    20    21 1   
    40    20    25 ar  
    41    21    22 1   
    42    21    44 1   
    43    21    45 1   
    44    22    23 1   
    45    23    24 1   
    46    23    46 1   
    47    23    47 1   
    48    24    48 1   
    49    24    49 1   
    50    24    50 1   
    51    25    26 ar  
    52    25    51 1   
    53    26    52 1   
    54    27    53 1   
    55    28    29 ar  
    56    28    54 1   
    57    29    55 1   
@<TRIPOS>SUBSTRUCTURE
     1 UNL         1 TEMP              0 ****  ****    0 ROOT
