@<TRIPOS>MOLECULE
UNL
   55    57     1     0     0
SMALL
bcc


@<TRIPOS>ATOM
      1 C1           1.3550    -7.1060    -5.6120 c3         1 UNL      -0.114100
      2 C2           0.5450    -7.1160    -4.3300 c3         1 UNL       0.124900
      3 O1          -0.8260    -6.9090    -4.6660 os         1 UNL      -0.418600
      4 C3          -1.6770    -6.8900    -3.5180 c3         1 UNL       0.171200
      5 C4          -1.6380    -5.5600    -2.8060 ca         1 UNL      -0.111800
      6 C5          -1.7300    -4.3620    -3.5260 ca         1 UNL      -0.119500
      7 C6          -1.7160    -3.1300    -2.8650 ca         1 UNL      -0.117750
      8 C7          -1.6160    -3.0600    -1.4670 cp         1 UNL      -0.043500
      9 C8          -1.6000    -1.7630    -0.7700 cp         1 UNL      -0.048500
     10 C9          -2.6130    -0.8160    -0.9850 ca         1 UNL      -0.060500
     11 C10         -2.5980     0.4150    -0.3170 ca         1 UNL      -0.135600
     12 C11         -3.6560     1.4320    -0.5220 c          1 UNL       0.651700
     13 O2          -3.7270     2.5100     0.0400 o          1 UNL      -0.553000
     14 O3          -4.5780     1.0550    -1.4240 oh         1 UNL      -0.607100
     15 C12         -1.5610     0.7100     0.5780 ca         1 UNL      -0.060500
     16 C13         -0.5300    -0.2110     0.8160 cp         1 UNL      -0.048500
     17 C14          0.5630     0.1000     1.7530 cp         1 UNL      -0.043500
     18 C15          1.9060    -0.0140     1.3620 ca         1 UNL      -0.117750
     19 C16          2.9460     0.2820     2.2500 ca         1 UNL      -0.119500
     20 C17          2.6700     0.7100     3.5530 ca         1 UNL      -0.111800
     21 C18          3.7970     1.0000     4.5150 c3         1 UNL       0.171200
     22 O4           3.4860     2.0900     5.3850 os         1 UNL      -0.418600
     23 C19          4.0830     3.3300     5.0120 c3         1 UNL       0.124900
     24 C20          3.4340     3.9490     3.7870 c3         1 UNL      -0.114100
     25 C21          1.3330     0.8110     3.9560 ca         1 UNL      -0.119500
     26 C22          0.2950     0.5160     3.0660 ca         1 UNL      -0.117750
     27 C23         -0.5700    -1.4400     0.1330 ca         1 UNL      -0.079000
     28 C24         -1.5340    -4.2660    -0.7520 ca         1 UNL      -0.117750
     29 C25         -1.5490    -5.5000    -1.4110 ca         1 UNL      -0.119500
     30 H1           2.4160    -7.2690    -5.4040 hc         1 UNL       0.045200
     31 H2           1.0050    -7.8850    -6.2960 hc         1 UNL       0.045200
     32 H3           1.2400    -6.1490    -6.1320 hc         1 UNL       0.045200
     33 H4           0.6600    -8.0830    -3.8280 h1         1 UNL       0.037700
     34 H5           0.9000    -6.3220    -3.6650 h1         1 UNL       0.037700
     35 H6          -1.4210    -7.7200    -2.8490 h1         1 UNL       0.056200
     36 H7          -2.7020    -7.0600    -3.8670 h1         1 UNL       0.056200
     37 H8          -1.8050    -4.3860    -4.6120 ha         1 UNL       0.141750
     38 H9          -1.7730    -2.2190    -3.4570 ha         1 UNL       0.137000
     39 H10         -3.4260    -1.0490    -1.6700 ha         1 UNL       0.161500
     40 H11         -5.2000     1.8120    -1.4540 ho         1 UNL       0.447000
     41 H12         -1.5520     1.6750     1.0840 ha         1 UNL       0.161500
     42 H13          2.1560    -0.3260     0.3490 ha         1 UNL       0.137000
     43 H14          3.9740     0.1810     1.9090 ha         1 UNL       0.141750
     44 H15          3.9360     0.1130     5.1440 h1         1 UNL       0.056200
     45 H16          4.7420     1.1760     3.9870 h1         1 UNL       0.056200
     46 H17          3.9460     4.0090     5.8610 h1         1 UNL       0.037700
     47 H18          5.1620     3.2060     4.8720 h1         1 UNL       0.037700
     48 H19          2.3470     3.9970     3.9050 hc         1 UNL       0.045200
     49 H20          3.8170     4.9600     3.6210 hc         1 UNL       0.045200
     50 H21          3.6410     3.3600     2.8890 hc         1 UNL       0.045200
     51 H22          1.0920     1.1270     4.9690 ha         1 UNL       0.141750
     52 H23         -0.7320     0.6060     3.4150 ha         1 UNL       0.137000
     53 H24          0.2230    -2.1670     0.3090 ha         1 UNL       0.144000
     54 H25         -1.4720    -4.2530     0.3340 ha         1 UNL       0.137000
     55 H26         -1.4920    -6.4130    -0.8220 ha         1 UNL       0.141750
@<TRIPOS>BOND
     1     1     2 1   
     2     1    30 1   
     3     1    31 1   
     4     1    32 1   
     5     2     3 1   
     6     2    33 1   
     7     2    34 1   
     8     3     4 1   
     9     4     5 1   
    10     4    35 1   
    11     4    36 1   
    12     5     6 ar  
    13     5    29 ar  
    14     6     7 ar  
    15     6    37 1   
    16     7     8 ar  
    17     7    38 1   
    18     8     9 1   
    19     8    28 ar  
    20     9    10 ar  
    21     9    27 ar  
    22    10    11 ar  
    23    10    39 1   
    24    11    12 1   
    25    11    15 ar  
    26    12    13 2   
    27    12    14 1   
    28    14    40 1   
    29    15    16 ar  
    30    15    41 1   
    31    16    17 1   
    32    16    27 ar  
    33    17    18 ar  
    34    17    26 ar  
    35    18    19 ar  
    36    18    42 1   
    37    19    20 ar  
    38    19    43 1   
    39    20    21 1   
    40    20    25 ar  
    41    21    22 1   
    42    21    44 1   
    43    21    45 1   
    44    22    23 1   
    45    23    24 1   
    46    23    46 1   
    47    23    47 1   
    48    24    48 1   
    49    24    49 1   
    50    24    50 1   
    51    25    26 ar  
    52    25    51 1   
    53    26    52 1   
    54    27    53 1   
    55    28    29 ar  
    56    28    54 1   
    57    29    55 1   
@<TRIPOS>SUBSTRUCTURE
     1 UNL         1 TEMP              0 ****  ****    0 ROOT
