@<TRIPOS>MOLECULE
UNL
   31    30     1     0     0
SMALL
bcc


@<TRIPOS>ATOM
      1 C1          -3.1040     1.1120    -2.2080 c2         1 UNL      -0.212000
      2 C2          -2.1800     1.2620    -1.2500 c2         1 UNL      -0.210200
      3 C3          -1.1040     2.3040    -1.2570 c3         1 UNL       0.157600
      4 O1           0.1700     1.6630    -1.2550 os         1 UNL      -0.429600
      5 C4           0.6870     1.4590     0.0630 c3         1 UNL       0.090400
      6 C5           1.9220     0.5570     0.0010 c3         1 UNL       0.128400
      7 O2           1.5710    -0.8330    -0.0320 os         1 UNL      -0.432600
      8 C6           1.2210    -1.2920    -1.3430 c3         1 UNL       0.087400
      9 C7           0.8110    -2.7660    -1.2740 c3         1 UNL       0.129400
     10 O3          -0.5700    -2.9440    -0.9280 os         1 UNL      -0.436600
     11 C8          -0.8480    -2.6530     0.4470 c3         1 UNL       0.080400
     12 C9          -2.3080    -3.0110     0.7080 c3         1 UNL       0.129400
     13 O4          -3.1530    -2.2190    -0.1280 oh         1 UNL      -0.607800
     14 H1          -3.8550     0.3310    -2.1300 ha         1 UNL       0.112000
     15 H2          -3.1310     1.7520    -3.0840 ha         1 UNL       0.112000
     16 H3          -2.2040     0.5860    -0.3980 ha         1 UNL       0.153000
     17 H4          -1.1590     2.9090    -2.1690 h1         1 UNL       0.053200
     18 H5          -1.2100     2.9830    -0.4040 h1         1 UNL       0.053200
     19 H6          -0.0760     1.0040     0.7050 h1         1 UNL       0.042200
     20 H7           0.9690     2.4370     0.4670 h1         1 UNL       0.042200
     21 H8           2.4990     0.6960     0.9210 h1         1 UNL       0.059200
     22 H9           2.5700     0.8050    -0.8480 h1         1 UNL       0.059200
     23 H10          0.3950    -0.7040    -1.7490 h1         1 UNL       0.051700
     24 H11          2.1020    -1.1910    -1.9850 h1         1 UNL       0.051700
     25 H12          1.4410    -3.3340    -0.5810 h1         1 UNL       0.060700
     26 H13          0.9240    -3.2050    -2.2710 h1         1 UNL       0.060700
     27 H14         -0.1920    -3.2390     1.0990 h1         1 UNL       0.049200
     28 H15         -0.7080    -1.5840     0.6270 h1         1 UNL       0.049200
     29 H16         -2.5010    -4.0620     0.4710 h1         1 UNL       0.051700
     30 H17         -2.5790    -2.8230     1.7500 h1         1 UNL       0.051700
     31 H18         -2.7360    -2.2570    -1.0120 ho         1 UNL       0.414000
@<TRIPOS>BOND
     1     1     2 2   
     2     1    14 1   
     3     1    15 1   
     4     2     3 1   
     5     2    16 1   
     6     3     4 1   
     7     3    17 1   
     8     3    18 1   
     9     4     5 1   
    10     5     6 1   
    11     5    19 1   
    12     5    20 1   
    13     6     7 1   
    14     6    21 1   
    15     6    22 1   
    16     7     8 1   
    17     8     9 1   
    18     8    23 1   
    19     8    24 1   
    20     9    10 1   
    21     9    25 1   
    22     9    26 1   
    23    10    11 1   
    24    11    12 1   
    25    11    27 1   
    26    11    28 1   
    27    12    13 1   
    28    12    29 1   
    29    12    30 1   
    30    13    31 1   
@<TRIPOS>SUBSTRUCTURE
     1 UNL         1 TEMP              0 ****  ****    0 ROOT
