@<TRIPOS>MOLECULE
UNL
   31    30     1     0     0
SMALL
bcc


@<TRIPOS>ATOM
      1 C1           0.6640    -2.2040    -2.7960 c2         1 UNL      -0.189000
      2 C2           1.3670    -1.1640    -3.2680 c2         1 UNL      -0.187200
      3 C3           1.0420     0.2900    -3.0850 c3         1 UNL       0.164600
      4 O1          -0.1580     0.4510    -2.3360 os         1 UNL      -0.421600
      5 C4          -0.4680     1.8270    -2.1150 c3         1 UNL       0.097400
      6 C5          -1.7710     1.9430    -1.3170 c3         1 UNL       0.127400
      7 O2          -1.7360     1.3150    -0.0310 os         1 UNL      -0.427600
      8 C6          -0.8270     1.9170     0.8850 c3         1 UNL       0.090400
      9 C7          -1.0490     1.3160     2.2720 c3         1 UNL       0.123400
     10 O3          -0.1290     1.8560     3.2240 os         1 UNL      -0.428600
     11 C8           1.1110     1.1380     3.2890 c3         1 UNL       0.076400
     12 C9           0.9940    -0.0100     4.2900 c3         1 UNL       0.103400
     13 O4           0.6430     0.5040     5.5740 oh         1 UNL      -0.600800
     14 H1           0.9810    -3.2240    -2.9830 ha         1 UNL       0.119000
     15 H2          -0.2420    -2.0570    -2.2160 ha         1 UNL       0.119000
     16 H3           2.2660    -1.3700    -3.8440 ha         1 UNL       0.122000
     17 H4           0.9220     0.7560    -4.0700 h1         1 UNL       0.035200
     18 H5           1.8720     0.7760    -2.5610 h1         1 UNL       0.035200
     19 H6          -0.5950     2.3280    -3.0820 h1         1 UNL       0.033700
     20 H7           0.3600     2.3030    -1.5810 h1         1 UNL       0.033700
     21 H8          -2.0550     2.9940    -1.1960 h1         1 UNL       0.062200
     22 H9          -2.5730     1.4450    -1.8730 h1         1 UNL       0.062200
     23 H10         -0.9810     3.0020     0.9240 h1         1 UNL       0.041700
     24 H11          0.2030     1.7360     0.5630 h1         1 UNL       0.041700
     25 H12         -2.0600     1.5710     2.6110 h1         1 UNL       0.062200
     26 H13         -1.0040     0.2210     2.2430 h1         1 UNL       0.062200
     27 H14          1.4220     0.7810     2.3020 h1         1 UNL       0.068700
     28 H15          1.8600     1.8530     3.6470 h1         1 UNL       0.068700
     29 H16          1.9430    -0.5450     4.3800 h1         1 UNL       0.047700
     30 H17          0.2150    -0.7190     3.9970 h1         1 UNL       0.047700
     31 H18         -0.0440     1.1790     5.4080 ho         1 UNL       0.410000
@<TRIPOS>BOND
     1     1     2 2   
     2     1    14 1   
     3     1    15 1   
     4     2     3 1   
     5     2    16 1   
     6     3     4 1   
     7     3    17 1   
     8     3    18 1   
     9     4     5 1   
    10     5     6 1   
    11     5    19 1   
    12     5    20 1   
    13     6     7 1   
    14     6    21 1   
    15     6    22 1   
    16     7     8 1   
    17     8     9 1   
    18     8    23 1   
    19     8    24 1   
    20     9    10 1   
    21     9    25 1   
    22     9    26 1   
    23    10    11 1   
    24    11    12 1   
    25    11    27 1   
    26    11    28 1   
    27    12    13 1   
    28    12    29 1   
    29    12    30 1   
    30    13    31 1   
@<TRIPOS>SUBSTRUCTURE
     1 UNL         1 TEMP              0 ****  ****    0 ROOT
