@<TRIPOS>MOLECULE
UNL
   31    30     1     0     0
SMALL
bcc


@<TRIPOS>ATOM
      1 C1          -1.0380    -4.6940    -1.3210 c2         1 UNL      -0.213000
      2 C2          -0.4140    -4.2500    -0.2220 c2         1 UNL      -0.204200
      3 C3           0.3980    -2.9950    -0.1530 c3         1 UNL       0.156600
      4 O1          -0.0970    -2.1650     0.8960 os         1 UNL      -0.426600
      5 C4          -1.2060    -1.3570     0.4830 c3         1 UNL       0.089400
      6 C5          -1.6480    -0.4610     1.6430 c3         1 UNL       0.130400
      7 O2          -0.8760     0.7410     1.7430 os         1 UNL      -0.424600
      8 C6           0.4430     0.5300     2.2520 c3         1 UNL       0.093400
      9 C7           1.1290     1.8810     2.4810 c3         1 UNL       0.122400
     10 O3           1.2660     2.7020     1.3160 os         1 UNL      -0.413600
     11 C8           1.9880     2.1390     0.2270 c3         1 UNL       0.087400
     12 C9           3.4620     1.8850     0.5360 c3         1 UNL       0.094400
     13 O4           4.1640     1.4750    -0.6320 oh         1 UNL      -0.592800
     14 H1          -1.6100    -5.6170    -1.2990 ha         1 UNL       0.114000
     15 H2          -0.9940    -4.1540    -2.2620 ha         1 UNL       0.114000
     16 H3          -0.4840    -4.8260     0.6980 ha         1 UNL       0.133000
     17 H4           1.4280    -3.2630     0.1060 h1         1 UNL       0.056700
     18 H5           0.4310    -2.4500    -1.1030 h1         1 UNL       0.056700
     19 H6          -2.0360    -2.0150     0.2040 h1         1 UNL       0.041700
     20 H7          -0.9130    -0.7450    -0.3770 h1         1 UNL       0.041700
     21 H8          -1.6300    -0.9940     2.6000 h1         1 UNL       0.060700
     22 H9          -2.6770    -0.1360     1.4570 h1         1 UNL       0.060700
     23 H10          1.0220    -0.0680     1.5450 h1         1 UNL       0.045700
     24 H11          0.3860    -0.0070     3.2050 h1         1 UNL       0.045700
     25 H12          0.5270     2.4660     3.1860 h1         1 UNL       0.059200
     26 H13          2.1120     1.7380     2.9420 h1         1 UNL       0.059200
     27 H14          1.4990     1.2340    -0.1470 h1         1 UNL       0.053200
     28 H15          1.9240     2.8580    -0.5990 h1         1 UNL       0.053200
     29 H16          3.5720     1.0950     1.2840 h1         1 UNL       0.053700
     30 H17          3.9390     2.7840     0.9430 h1         1 UNL       0.053700
     31 H18          4.1670     2.2290    -1.2470 ho         1 UNL       0.397000
@<TRIPOS>BOND
     1     1     2 2   
     2     1    14 1   
     3     1    15 1   
     4     2     3 1   
     5     2    16 1   
     6     3     4 1   
     7     3    17 1   
     8     3    18 1   
     9     4     5 1   
    10     5     6 1   
    11     5    19 1   
    12     5    20 1   
    13     6     7 1   
    14     6    21 1   
    15     6    22 1   
    16     7     8 1   
    17     8     9 1   
    18     8    23 1   
    19     8    24 1   
    20     9    10 1   
    21     9    25 1   
    22     9    26 1   
    23    10    11 1   
    24    11    12 1   
    25    11    27 1   
    26    11    28 1   
    27    12    13 1   
    28    12    29 1   
    29    12    30 1   
    30    13    31 1   
@<TRIPOS>SUBSTRUCTURE
     1 UNL         1 TEMP              0 ****  ****    0 ROOT
