@<TRIPOS>MOLECULE
UNL
   31    30     1     0     0
SMALL
bcc


@<TRIPOS>ATOM
      1 C1          -0.1210     3.4380    -1.3860 c2         1 UNL      -0.217000
      2 C2          -0.4800     2.6140    -0.3920 c2         1 UNL      -0.169200
      3 C3          -1.4460     1.4820    -0.5310 c3         1 UNL       0.154600
      4 O1          -0.7340     0.2760    -0.2600 os         1 UNL      -0.433600
      5 C4          -1.6020    -0.8620    -0.1840 c3         1 UNL       0.090400
      6 C5          -2.0780    -1.1090     1.2520 c3         1 UNL       0.101400
      7 O2          -1.1130    -1.7980     2.0550 os         1 UNL      -0.420600
      8 C6           0.0240    -1.0120     2.4170 c3         1 UNL       0.092400
      9 C7           1.2670    -1.4850     1.6600 c3         1 UNL       0.110400
     10 O3           2.4320    -0.7270     1.9920 os         1 UNL      -0.427600
     11 C8           2.5220     0.5330     1.3120 c3         1 UNL       0.070400
     12 C9           3.0600     0.3530    -0.1070 c3         1 UNL       0.105400
     13 O4           4.3280    -0.3010    -0.0620 oh         1 UNL      -0.600800
     14 H1          -0.5120     3.3250    -2.3920 ha         1 UNL       0.116000
     15 H2           0.5860     4.2430    -1.2110 ha         1 UNL       0.116000
     16 H3          -0.0590     2.7680     0.5980 ha         1 UNL       0.139000
     17 H4          -1.8670     1.4350    -1.5420 h1         1 UNL       0.038200
     18 H5          -2.2610     1.6160     0.1870 h1         1 UNL       0.038200
     19 H6          -2.4570    -0.7280    -0.8560 h1         1 UNL       0.059700
     20 H7          -1.0300    -1.7260    -0.5370 h1         1 UNL       0.059700
     21 H8          -2.9550    -1.7640     1.2160 h1         1 UNL       0.055200
     22 H9          -2.3750    -0.1830     1.7560 h1         1 UNL       0.055200
     23 H10         -0.1620     0.0600     2.2940 h1         1 UNL       0.056700
     24 H11          0.1950    -1.1600     3.4900 h1         1 UNL       0.056700
     25 H12          1.4690    -2.5250     1.9440 h1         1 UNL       0.055700
     26 H13          1.1050    -1.5060     0.5790 h1         1 UNL       0.055700
     27 H14          1.5640     1.0570     1.3160 h1         1 UNL       0.069200
     28 H15          3.2350     1.1340     1.8870 h1         1 UNL       0.069200
     29 H16          3.1900     1.3220    -0.5970 h1         1 UNL       0.046200
     30 H17          2.3950    -0.2600    -0.7210 h1         1 UNL       0.046200
     31 H18          4.2400    -0.9960     0.6200 ho         1 UNL       0.411000
@<TRIPOS>BOND
     1     1     2 2   
     2     1    14 1   
     3     1    15 1   
     4     2     3 1   
     5     2    16 1   
     6     3     4 1   
     7     3    17 1   
     8     3    18 1   
     9     4     5 1   
    10     5     6 1   
    11     5    19 1   
    12     5    20 1   
    13     6     7 1   
    14     6    21 1   
    15     6    22 1   
    16     7     8 1   
    17     8     9 1   
    18     8    23 1   
    19     8    24 1   
    20     9    10 1   
    21     9    25 1   
    22     9    26 1   
    23    10    11 1   
    24    11    12 1   
    25    11    27 1   
    26    11    28 1   
    27    12    13 1   
    28    12    29 1   
    29    12    30 1   
    30    13    31 1   
@<TRIPOS>SUBSTRUCTURE
     1 UNL         1 TEMP              0 ****  ****    0 ROOT
