@<TRIPOS>MOLECULE
UNL
   31    30     1     0     0
SMALL
bcc


@<TRIPOS>ATOM
      1 C1           3.6020     3.1620    -2.3500 c2         1 UNL      -0.230000
      2 C2           3.0650     1.9370    -2.2710 c2         1 UNL      -0.161200
      3 C3           1.7040     1.6320    -1.7320 c3         1 UNL       0.150600
      4 O1           1.0040     0.9100    -2.7380 os         1 UNL      -0.424600
      5 C4          -0.4090     0.8450    -2.5280 c3         1 UNL       0.129400
      6 C5          -0.8280     0.1010    -1.2550 c3         1 UNL       0.084400
      7 O2          -0.3890    -1.2570    -1.3260 os         1 UNL      -0.428600
      8 C6          -0.9110    -2.0920    -0.2870 c3         1 UNL       0.100400
      9 C7          -0.3580    -1.7510     1.1020 c3         1 UNL       0.092400
     10 O3          -1.0310    -0.6350     1.6990 os         1 UNL      -0.423600
     11 C8          -2.2460    -0.9970     2.3510 c3         1 UNL       0.088400
     12 C9          -2.8670     0.2450     2.9810 c3         1 UNL       0.125400
     13 O4          -4.1200    -0.0610     3.5810 oh         1 UNL      -0.591800
     14 H1           3.0640     4.0440    -2.0170 ha         1 UNL       0.112000
     15 H2           4.5960     3.3030    -2.7610 ha         1 UNL       0.112000
     16 H3           3.6380     1.0820    -2.6240 ha         1 UNL       0.140000
     17 H4           1.1660     2.5510    -1.4730 h1         1 UNL       0.047200
     18 H5           1.8060     1.0090    -0.8380 h1         1 UNL       0.047200
     19 H6          -0.8180     1.8620    -2.5260 h1         1 UNL       0.059200
     20 H7          -0.8220     0.3240    -3.3980 h1         1 UNL       0.059200
     21 H8          -1.9200     0.1290    -1.1670 h1         1 UNL       0.050200
     22 H9          -0.3870     0.5820    -0.3790 h1         1 UNL       0.050200
     23 H10         -0.5980    -3.1100    -0.5420 h1         1 UNL       0.053700
     24 H11         -2.0040    -2.0630    -0.3210 h1         1 UNL       0.053700
     25 H12          0.6980    -1.4720     1.0170 h1         1 UNL       0.061700
     26 H13         -0.4250    -2.6180     1.7680 h1         1 UNL       0.061700
     27 H14         -2.0510    -1.7440     3.1300 h1         1 UNL       0.032200
     28 H15         -2.9490    -1.4370     1.6360 h1         1 UNL       0.032200
     29 H16         -2.2030     0.6500     3.7520 h1         1 UNL       0.059700
     30 H17         -3.0100     1.0360     2.2360 h1         1 UNL       0.059700
     31 H18         -4.7570    -0.2170     2.8640 ho         1 UNL       0.398000
@<TRIPOS>BOND
     1     1     2 2   
     2     1    14 1   
     3     1    15 1   
     4     2     3 1   
     5     2    16 1   
     6     3     4 1   
     7     3    17 1   
     8     3    18 1   
     9     4     5 1   
    10     5     6 1   
    11     5    19 1   
    12     5    20 1   
    13     6     7 1   
    14     6    21 1   
    15     6    22 1   
    16     7     8 1   
    17     8     9 1   
    18     8    23 1   
    19     8    24 1   
    20     9    10 1   
    21     9    25 1   
    22     9    26 1   
    23    10    11 1   
    24    11    12 1   
    25    11    27 1   
    26    11    28 1   
    27    12    13 1   
    28    12    29 1   
    29    12    30 1   
    30    13    31 1   
@<TRIPOS>SUBSTRUCTURE
     1 UNL         1 TEMP              0 ****  ****    0 ROOT
