@<TRIPOS>MOLECULE
UNL
   30    29     1     0     0
SMALL
bcc


@<TRIPOS>ATOM
      1 C1          -0.1700    -3.4590    -3.3330 c3         1 UNL      -0.097100
      2 C2           0.4980    -3.8180    -2.0210 c3         1 UNL       0.130400
      3 O1           0.8730    -2.6100    -1.3640 os         1 UNL      -0.434600
      4 C3           1.5110    -2.8630    -0.1080 c3         1 UNL       0.094400
      5 C4           1.8320    -1.5320     0.5760 c3         1 UNL       0.124400
      6 O2           0.7400    -0.9950     1.3300 os         1 UNL      -0.425600
      7 C5          -0.4130    -0.6140     0.5780 c3         1 UNL       0.082400
      8 C6          -0.1650     0.5510    -0.3840 c3         1 UNL       0.104400
      9 O3          -1.3780     1.0390    -0.9600 os         1 UNL      -0.423600
     10 C7          -2.0410     1.9890    -0.1320 c3         1 UNL       0.148600
     11 C8          -3.2760     2.4220    -0.8550 c2         1 UNL      -0.160200
     12 C9          -3.5870     3.6920    -1.1450 c2         1 UNL      -0.230000
     13 H1          -1.0510    -2.8330    -3.1580 hc         1 UNL       0.045367
     14 H2           0.5100    -2.8810    -3.9670 hc         1 UNL       0.045367
     15 H3          -0.4780    -4.3580    -3.8730 hc         1 UNL       0.045367
     16 H4          -0.1980    -4.3810    -1.3910 h1         1 UNL       0.026200
     17 H5           1.3880    -4.4280    -2.2090 h1         1 UNL       0.026200
     18 H6           2.4430    -3.4050    -0.3020 h1         1 UNL       0.039200
     19 H7           0.8550    -3.4700     0.5250 h1         1 UNL       0.039200
     20 H8           2.1960    -0.7860    -0.1370 h1         1 UNL       0.059200
     21 H9           2.6310    -1.7040     1.3040 h1         1 UNL       0.059200
     22 H10         -0.8470    -1.4740     0.0570 h1         1 UNL       0.069700
     23 H11         -1.1690    -0.3220     1.3140 h1         1 UNL       0.069700
     24 H12          0.4600     0.2090    -1.2150 h1         1 UNL       0.052700
     25 H13          0.3920     1.3590     0.1060 h1         1 UNL       0.052700
     26 H14         -2.3270     1.5310     0.8200 h1         1 UNL       0.046200
     27 H15         -1.3770     2.8380     0.0650 h1         1 UNL       0.046200
     28 H16         -3.9520     1.6280    -1.1630 ha         1 UNL       0.139000
     29 H17         -2.9390     4.5170    -0.8660 ha         1 UNL       0.112000
     30 H18         -4.5010     3.9290    -1.6810 ha         1 UNL       0.112000
@<TRIPOS>BOND
     1     1     2 1   
     2     1    13 1   
     3     1    14 1   
     4     1    15 1   
     5     2     3 1   
     6     2    16 1   
     7     2    17 1   
     8     3     4 1   
     9     4     5 1   
    10     4    18 1   
    11     4    19 1   
    12     5     6 1   
    13     5    20 1   
    14     5    21 1   
    15     6     7 1   
    16     7     8 1   
    17     7    22 1   
    18     7    23 1   
    19     8     9 1   
    20     8    24 1   
    21     8    25 1   
    22     9    10 1   
    23    10    11 1   
    24    10    26 1   
    25    10    27 1   
    26    11    12 2   
    27    11    28 1   
    28    12    29 1   
    29    12    30 1   
@<TRIPOS>SUBSTRUCTURE
     1 UNL         1 TEMP              0 ****  ****    0 ROOT
