@<TRIPOS>MOLECULE
UNL
   30    29     1     0     0
SMALL
bcc


@<TRIPOS>ATOM
      1 C1           0.6650    -3.9530     0.4950 c3         1 UNL      -0.136100
      2 C2           1.3830    -3.2330     1.6220 c3         1 UNL       0.131400
      3 O1           1.1370    -1.8270     1.6010 os         1 UNL      -0.437600
      4 C3          -0.1420    -1.4700     2.1410 c3         1 UNL       0.087400
      5 C4          -0.2500     0.0530     2.2580 c3         1 UNL       0.124400
      6 O2          -0.6110     0.6930     1.0310 os         1 UNL      -0.414600
      7 C5           0.4370     0.7450     0.0610 c3         1 UNL       0.098400
      8 C6           0.1360    -0.1720    -1.1300 c3         1 UNL       0.087400
      9 O3          -1.0960     0.1080    -1.8030 os         1 UNL      -0.417600
     10 C7          -1.1420     1.3950    -2.4060 c3         1 UNL       0.150600
     11 C8          -2.2780     1.3900    -3.3790 c2         1 UNL      -0.161200
     12 C9          -3.2930     2.2630    -3.3720 c2         1 UNL      -0.228000
     13 H1          -0.4210    -3.8840     0.6050 hc         1 UNL       0.047700
     14 H2           0.9410    -5.0110     0.4780 hc         1 UNL       0.047700
     15 H3           0.9210    -3.5080    -0.4710 hc         1 UNL       0.047700
     16 H4           1.1170    -3.6570     2.5980 h1         1 UNL       0.042700
     17 H5           2.4620    -3.3670     1.4940 h1         1 UNL       0.042700
     18 H6          -0.2350    -1.9080     3.1410 h1         1 UNL       0.050200
     19 H7          -0.9370    -1.8550     1.4950 h1         1 UNL       0.050200
     20 H8           0.6730     0.4970     2.6480 h1         1 UNL       0.059200
     21 H9          -1.0550     0.2880     2.9620 h1         1 UNL       0.059200
     22 H10          1.4110     0.4990     0.4980 h1         1 UNL       0.049700
     23 H11          0.4970     1.7850    -0.2740 h1         1 UNL       0.049700
     24 H12          0.9570    -0.1340    -1.8560 h1         1 UNL       0.062200
     25 H13          0.0540    -1.2060    -0.7860 h1         1 UNL       0.062200
     26 H14         -0.2110     1.5970    -2.9470 h1         1 UNL       0.041700
     27 H15         -1.2850     2.1590    -1.6350 h1         1 UNL       0.041700
     28 H16         -2.2580     0.6060    -4.1330 ha         1 UNL       0.139000
     29 H17         -3.3610     3.0530    -2.6310 ha         1 UNL       0.112500
     30 H18         -4.0900     2.1930    -4.1060 ha         1 UNL       0.112500
@<TRIPOS>BOND
     1     1     2 1   
     2     1    13 1   
     3     1    14 1   
     4     1    15 1   
     5     2     3 1   
     6     2    16 1   
     7     2    17 1   
     8     3     4 1   
     9     4     5 1   
    10     4    18 1   
    11     4    19 1   
    12     5     6 1   
    13     5    20 1   
    14     5    21 1   
    15     6     7 1   
    16     7     8 1   
    17     7    22 1   
    18     7    23 1   
    19     8     9 1   
    20     8    24 1   
    21     8    25 1   
    22     9    10 1   
    23    10    11 1   
    24    10    26 1   
    25    10    27 1   
    26    11    12 2   
    27    11    28 1   
    28    12    29 1   
    29    12    30 1   
@<TRIPOS>SUBSTRUCTURE
     1 UNL         1 TEMP              0 ****  ****    0 ROOT
