@<TRIPOS>MOLECULE
UNL
   30    29     1     0     0
SMALL
bcc


@<TRIPOS>ATOM
      1 C1          -0.0880     2.2790    -5.3370 c3         1 UNL      -0.130100
      2 C2          -0.1460     3.5010    -4.4380 c3         1 UNL       0.129400
      3 O1          -0.3820     3.1320    -3.0810 os         1 UNL      -0.426600
      4 C3           0.8100     2.7530    -2.3850 c3         1 UNL       0.123400
      5 C4           0.4450     2.2870    -0.9750 c3         1 UNL       0.122400
      6 O2          -0.1000     0.9640    -1.0410 os         1 UNL      -0.420600
      7 C5          -0.6470     0.5190     0.2000 c3         1 UNL       0.099400
      8 C6           0.4340     0.0560     1.1790 c3         1 UNL       0.089400
      9 O3          -0.1330    -0.4510     2.3860 os         1 UNL      -0.413600
     10 C7          -0.5180    -1.8210     2.3110 c3         1 UNL       0.152600
     11 C8           0.5990    -2.6670     2.8410 c2         1 UNL      -0.202200
     12 C9           0.4920    -3.5050     3.8810 c2         1 UNL      -0.214000
     13 H1          -0.9840     1.6620    -5.2060 hc         1 UNL       0.043367
     14 H2           0.7730     1.6480    -5.0980 hc         1 UNL       0.043367
     15 H3          -0.0140     2.5760    -6.3870 hc         1 UNL       0.043367
     16 H4           0.7640     4.1060    -4.5260 h1         1 UNL       0.044200
     17 H5          -0.9880     4.1280    -4.7480 h1         1 UNL       0.044200
     18 H6           1.4650     3.6290    -2.3200 h1         1 UNL       0.042200
     19 H7           1.3220     1.9500    -2.9240 h1         1 UNL       0.042200
     20 H8          -0.2920     2.9680    -0.5330 h1         1 UNL       0.044200
     21 H9           1.3480     2.2660    -0.3580 h1         1 UNL       0.044200
     22 H10         -1.2820     1.2920     0.6490 h1         1 UNL       0.055700
     23 H11         -1.3150    -0.3180    -0.0310 h1         1 UNL       0.055700
     24 H12          1.1050    -0.6760     0.7130 h1         1 UNL       0.055200
     25 H13          1.0610     0.9090     1.4580 h1         1 UNL       0.055200
     26 H14         -0.7720    -2.1210     1.2880 h1         1 UNL       0.056200
     27 H15         -1.4180    -1.9390     2.9230 h1         1 UNL       0.056200
     28 H16          1.5570    -2.5820     2.3340 ha         1 UNL       0.134000
     29 H17          1.3450    -4.0860     4.2160 ha         1 UNL       0.113500
     30 H18         -0.4400    -3.6220     4.4260 ha         1 UNL       0.113500
@<TRIPOS>BOND
     1     1     2 1   
     2     1    13 1   
     3     1    14 1   
     4     1    15 1   
     5     2     3 1   
     6     2    16 1   
     7     2    17 1   
     8     3     4 1   
     9     4     5 1   
    10     4    18 1   
    11     4    19 1   
    12     5     6 1   
    13     5    20 1   
    14     5    21 1   
    15     6     7 1   
    16     7     8 1   
    17     7    22 1   
    18     7    23 1   
    19     8     9 1   
    20     8    24 1   
    21     8    25 1   
    22     9    10 1   
    23    10    11 1   
    24    10    26 1   
    25    10    27 1   
    26    11    12 2   
    27    11    28 1   
    28    12    29 1   
    29    12    30 1   
@<TRIPOS>SUBSTRUCTURE
     1 UNL         1 TEMP              0 ****  ****    0 ROOT
