@<TRIPOS>MOLECULE
UNL
   30    29     1     0     0
SMALL
bcc


@<TRIPOS>ATOM
      1 C1          -0.7750    -2.7450    -0.9030 c3         1 UNL      -0.131100
      2 C2           0.1770    -1.5830    -0.6850 c3         1 UNL       0.129400
      3 O1           0.7380    -1.5950     0.6250 os         1 UNL      -0.422600
      4 C3          -0.1650    -1.1450     1.6380 c3         1 UNL       0.085400
      5 C4           0.5810    -1.0090     2.9710 c3         1 UNL       0.128400
      6 O2           1.6310    -0.0350     2.9620 os         1 UNL      -0.418600
      7 C5           1.1870     1.3080     2.7920 c3         1 UNL       0.121400
      8 C6           1.6370     1.8460     1.4370 c3         1 UNL       0.098400
      9 O3           1.1180     3.1650     1.2570 os         1 UNL      -0.431600
     10 C7           1.4470     3.7070    -0.0190 c3         1 UNL       0.156600
     11 C8           0.4150     3.2800    -1.0180 c2         1 UNL      -0.205200
     12 C9           0.6800     2.6210    -2.1540 c2         1 UNL      -0.213000
     13 H1          -0.2970    -3.6920    -0.6350 hc         1 UNL       0.042033
     14 H2          -1.0930    -2.7910    -1.9490 hc         1 UNL       0.042033
     15 H3          -1.6700    -2.6480    -0.2800 hc         1 UNL       0.042033
     16 H4          -0.3130    -0.6230    -0.8860 h1         1 UNL       0.044200
     17 H5           1.0120    -1.6730    -1.3880 h1         1 UNL       0.044200
     18 H6          -0.6030    -0.1880     1.3400 h1         1 UNL       0.045200
     19 H7          -0.9680    -1.8790     1.7580 h1         1 UNL       0.045200
     20 H8          -0.1190    -0.7720     3.7800 h1         1 UNL       0.060700
     21 H9           1.0570    -1.9650     3.2130 h1         1 UNL       0.060700
     22 H10          0.1020     1.4110     2.9210 h1         1 UNL       0.056700
     23 H11          1.6440     1.9120     3.5840 h1         1 UNL       0.056700
     24 H12          2.7330     1.8660     1.3940 h1         1 UNL       0.044700
     25 H13          1.2890     1.1880     0.6340 h1         1 UNL       0.044700
     26 H14          1.4100     4.7970     0.0710 h1         1 UNL       0.055200
     27 H15          2.4680     3.4360    -0.3140 h1         1 UNL       0.055200
     28 H16         -0.6140     3.5390    -0.7800 ha         1 UNL       0.136000
     29 H17          1.6930     2.3420    -2.4290 ha         1 UNL       0.113500
     30 H18         -0.1200     2.3450    -2.8340 ha         1 UNL       0.113500
@<TRIPOS>BOND
     1     1     2 1   
     2     1    13 1   
     3     1    14 1   
     4     1    15 1   
     5     2     3 1   
     6     2    16 1   
     7     2    17 1   
     8     3     4 1   
     9     4     5 1   
    10     4    18 1   
    11     4    19 1   
    12     5     6 1   
    13     5    20 1   
    14     5    21 1   
    15     6     7 1   
    16     7     8 1   
    17     7    22 1   
    18     7    23 1   
    19     8     9 1   
    20     8    24 1   
    21     8    25 1   
    22     9    10 1   
    23    10    11 1   
    24    10    26 1   
    25    10    27 1   
    26    11    12 2   
    27    11    28 1   
    28    12    29 1   
    29    12    30 1   
@<TRIPOS>SUBSTRUCTURE
     1 UNL         1 TEMP              0 ****  ****    0 ROOT
