@<TRIPOS>MOLECULE
UNL
   30    29     1     0     0
SMALL
bcc


@<TRIPOS>ATOM
      1 C1          -2.5920    -2.3930     0.0480 c3         1 UNL      -0.097100
      2 C2          -2.2460    -1.3140    -0.9590 c3         1 UNL       0.130400
      3 O1          -0.8300    -1.1480    -0.9700 os         1 UNL      -0.432600
      4 C3          -0.4230    -0.1400    -1.9030 c3         1 UNL       0.093400
      5 C4           1.0940     0.0460    -1.8280 c3         1 UNL       0.128400
      6 O2           1.5020     0.9360    -0.7820 os         1 UNL      -0.432600
      7 C5           1.3100     0.3960     0.5320 c3         1 UNL       0.087400
      8 C6           1.9950     1.3000     1.5610 c3         1 UNL       0.128400
      9 O3           1.2140     2.4480     1.9140 os         1 UNL      -0.423600
     10 C7           1.0860     3.3890     0.8520 c3         1 UNL       0.150600
     11 C8           0.5890     4.6660     1.4560 c2         1 UNL      -0.160200
     12 C9           1.1900     5.8560     1.3310 c2         1 UNL      -0.232000
     13 H1          -2.1040    -3.3370    -0.2160 hc         1 UNL       0.045367
     14 H2          -3.6730    -2.5540     0.0910 hc         1 UNL       0.045367
     15 H3          -2.2350    -2.1180     1.0460 hc         1 UNL       0.045367
     16 H4          -2.7260    -0.3720    -0.6740 h1         1 UNL       0.026700
     17 H5          -2.5920    -1.6080    -1.9560 h1         1 UNL       0.026700
     18 H6          -0.6980    -0.4760    -2.9090 h1         1 UNL       0.037700
     19 H7          -0.9340     0.8010    -1.6740 h1         1 UNL       0.037700
     20 H8           1.6160    -0.9110    -1.7180 h1         1 UNL       0.060200
     21 H9           1.4340     0.5100    -2.7600 h1         1 UNL       0.060200
     22 H10          1.7600    -0.6020     0.5750 h1         1 UNL       0.050700
     23 H11          0.2400     0.3380     0.7520 h1         1 UNL       0.050700
     24 H12          2.1290     0.7340     2.4890 h1         1 UNL       0.058700
     25 H13          2.9850     1.6230     1.2180 h1         1 UNL       0.058700
     26 H14          0.3470     3.0300     0.1300 h1         1 UNL       0.046200
     27 H15          2.0480     3.5400     0.3490 h1         1 UNL       0.046200
     28 H16         -0.3270     4.5920     2.0370 ha         1 UNL       0.140000
     29 H17          0.7730     6.7390     1.8040 ha         1 UNL       0.111500
     30 H18          2.1100     5.9740     0.7670 ha         1 UNL       0.111500
@<TRIPOS>BOND
     1     1     2 1   
     2     1    13 1   
     3     1    14 1   
     4     1    15 1   
     5     2     3 1   
     6     2    16 1   
     7     2    17 1   
     8     3     4 1   
     9     4     5 1   
    10     4    18 1   
    11     4    19 1   
    12     5     6 1   
    13     5    20 1   
    14     5    21 1   
    15     6     7 1   
    16     7     8 1   
    17     7    22 1   
    18     7    23 1   
    19     8     9 1   
    20     8    24 1   
    21     8    25 1   
    22     9    10 1   
    23    10    11 1   
    24    10    26 1   
    25    10    27 1   
    26    11    12 2   
    27    11    28 1   
    28    12    29 1   
    29    12    30 1   
@<TRIPOS>SUBSTRUCTURE
     1 UNL         1 TEMP              0 ****  ****    0 ROOT
