MODEL 1
REMARK VINA RESULT:    -5.366      0.000      0.000
REMARK INTER + INTRA:          -9.823
REMARK INTER:                  -7.875
REMARK INTRA:                  -1.948
REMARK UNBOUND:                -1.948
REMARK SMILES C=CCOc1ccc(-c2ccc3ccc4c(-c5ccc(OCC=C)cc5)ccc5ccc2c3c54)cc1
REMARK SMILES IDX 9 1 10 2 11 3 12 4 13 5 14 6 15 7 16 8 27 9 28 10 29 11
REMARK SMILES IDX 30 12 31 13 32 14 33 15 34 16 8 17 5 18 6 19 36 20 7 21
REMARK SMILES IDX 35 22 4 23 3 24 2 25 1 26 17 27 18 28 26 29 19 30 25 31
REMARK SMILES IDX 20 32 21 33 22 34 23 35 24 36
REMARK H PARENT
REMARK Flexibility Score: inf
ROOT
ATOM      1  C   UNL     1       2.454   7.302  -0.212  1.00  0.00    -0.010 A 
ATOM      2  C   UNL     1       2.235   6.019   0.318  1.00  0.00     0.010 A 
ATOM      3  C   UNL     1       3.064   4.953  -0.019  1.00  0.00     0.009 A 
ATOM      4  C   UNL     1       4.137   5.140  -0.895  1.00  0.00    -0.017 A 
ATOM      5  C   UNL     1       4.966   4.069  -1.233  1.00  0.00     0.009 A 
ATOM      6  C   UNL     1       6.039   4.247  -2.106  1.00  0.00     0.010 A 
ATOM      7  C   UNL     1       6.328   5.503  -2.677  1.00  0.00    -0.009 A 
ATOM      8  C   UNL     1       7.418   5.713  -3.569  1.00  0.00    -0.010 A 
ATOM      9  C   UNL     1       7.636   6.994  -4.100  1.00  0.00     0.010 A 
ATOM     10  C   UNL     1       6.806   8.060  -3.765  1.00  0.00     0.009 A 
ATOM     11  C   UNL     1       5.732   7.874  -2.889  1.00  0.00    -0.017 A 
ATOM     12  C   UNL     1       4.901   8.944  -2.553  1.00  0.00     0.009 A 
ATOM     13  C   UNL     1       3.828   8.766  -1.680  1.00  0.00     0.010 A 
ATOM     14  C   UNL     1       3.542   7.512  -1.105  1.00  0.00    -0.009 A 
ATOM     15  C   UNL     1       4.386   6.420  -1.445  1.00  0.00    -0.002 A 
ATOM     16  C   UNL     1       5.484   6.595  -2.338  1.00  0.00    -0.002 A 
ENDROOT
BRANCH   1  17
ATOM     17  C   UNL     1       1.536   8.379   0.188  1.00  0.00    -0.018 A 
ATOM     18  C   UNL     1      -0.240  10.438   0.953  1.00  0.00     0.119 A 
ATOM     19  C   UNL     1       0.838  10.086   1.769  1.00  0.00     0.047 A 
ATOM     20  C   UNL     1      -0.435   9.751  -0.245  1.00  0.00     0.047 A 
ATOM     21  C   UNL     1       1.719   9.068   1.394  1.00  0.00     0.012 A 
ATOM     22  C   UNL     1       0.447   8.731  -0.623  1.00  0.00     0.012 A 
BRANCH  18  23
ATOM     23  O   UNL     1      -1.022  11.441   1.450  1.00  0.00    -0.490 OA
BRANCH  23  24
ATOM     24  C   UNL     1      -0.616  12.797   1.263  1.00  0.00     0.257 C 
BRANCH  24  25
ATOM     25  C   UNL     1      -1.388  13.412   0.132  1.00  0.00     0.006 C 
ATOM     26  C   UNL     1      -0.983  13.427  -1.146  1.00  0.00     0.007 C 
ENDBRANCH  24  25
ENDBRANCH  23  24
ENDBRANCH  18  23
ENDBRANCH   1  17
BRANCH   8  27
ATOM     27  C   UNL     1       8.338   4.635  -3.964  1.00  0.00    -0.018 A 
ATOM     28  C   UNL     1       9.489   4.361  -3.211  1.00  0.00     0.012 A 
ATOM     29  C   UNL     1       8.086   3.860  -5.105  1.00  0.00     0.012 A 
ATOM     30  C   UNL     1      10.366   3.335  -3.582  1.00  0.00     0.047 A 
ATOM     31  C   UNL     1       8.963   2.836  -5.473  1.00  0.00     0.047 A 
ATOM     32  C   UNL     1      10.104   2.567  -4.715  1.00  0.00     0.119 A 
BRANCH  32  33
ATOM     33  O   UNL     1      10.871   1.538  -5.188  1.00  0.00    -0.490 OA
BRANCH  33  34
ATOM     34  C   UNL     1      10.224   0.284  -5.389  1.00  0.00     0.257 C 
BRANCH  34  35
ATOM     35  C   UNL     1      10.126  -0.389  -4.052  1.00  0.00     0.006 C 
ATOM     36  C   UNL     1       8.981  -0.636  -3.401  1.00  0.00     0.007 C 
ENDBRANCH  34  35
ENDBRANCH  33  34
ENDBRANCH  32  33
ENDBRANCH   8  27
TORSDOF 8
ENDMDL
MODEL 2
REMARK VINA RESULT:    -5.365      0.109     11.246
REMARK INTER + INTRA:          -9.822
REMARK INTER:                  -7.899
REMARK INTRA:                  -1.923
REMARK UNBOUND:                -1.948
REMARK SMILES C=CCOc1ccc(-c2ccc3ccc4c(-c5ccc(OCC=C)cc5)ccc5ccc2c3c54)cc1
REMARK SMILES IDX 9 1 10 2 11 3 12 4 13 5 14 6 15 7 16 8 27 9 28 10 29 11
REMARK SMILES IDX 30 12 31 13 32 14 33 15 34 16 8 17 5 18 6 19 36 20 7 21
REMARK SMILES IDX 35 22 4 23 3 24 2 25 1 26 17 27 18 28 26 29 19 30 25 31
REMARK SMILES IDX 20 32 21 33 22 34 23 35 24 36
REMARK H PARENT
REMARK Flexibility Score: inf
ROOT
ATOM      1  C   UNL     1       7.460   5.728  -3.529  1.00  0.00    -0.010 A 
ATOM      2  C   UNL     1       7.684   7.013  -4.049  1.00  0.00     0.010 A 
ATOM      3  C   UNL     1       6.847   8.076  -3.720  1.00  0.00     0.009 A 
ATOM      4  C   UNL     1       5.763   7.883  -2.859  1.00  0.00    -0.017 A 
ATOM      5  C   UNL     1       4.924   8.949  -2.532  1.00  0.00     0.009 A 
ATOM      6  C   UNL     1       3.840   8.765  -1.674  1.00  0.00     0.010 A 
ATOM      7  C   UNL     1       3.549   7.507  -1.108  1.00  0.00    -0.009 A 
ATOM      8  C   UNL     1       2.450   7.292  -0.229  1.00  0.00    -0.010 A 
ATOM      9  C   UNL     1       2.225   6.007   0.290  1.00  0.00     0.010 A 
ATOM     10  C   UNL     1       3.060   4.944  -0.041  1.00  0.00     0.009 A 
ATOM     11  C   UNL     1       4.145   5.137  -0.902  1.00  0.00    -0.017 A 
ATOM     12  C   UNL     1       4.982   4.069  -1.232  1.00  0.00     0.009 A 
ATOM     13  C   UNL     1       6.066   4.253  -2.089  1.00  0.00     0.010 A 
ATOM     14  C   UNL     1       6.360   5.512  -2.651  1.00  0.00    -0.009 A 
ATOM     15  C   UNL     1       5.509   6.600  -2.318  1.00  0.00    -0.002 A 
ATOM     16  C   UNL     1       4.399   6.419  -1.442  1.00  0.00    -0.002 A 
ENDROOT
BRANCH   1  17
ATOM     17  C   UNL     1       8.384   4.654  -3.923  1.00  0.00    -0.018 A 
ATOM     18  C   UNL     1      10.158   2.585  -4.664  1.00  0.00     0.119 A 
ATOM     19  C   UNL     1       8.997   2.828  -5.403  1.00  0.00     0.047 A 
ATOM     20  C   UNL     1      10.426   3.372  -3.545  1.00  0.00     0.047 A 
ATOM     21  C   UNL     1       8.118   3.851  -5.040  1.00  0.00     0.012 A 
ATOM     22  C   UNL     1       9.545   4.399  -3.180  1.00  0.00     0.012 A 
BRANCH  18  23
ATOM     23  O   UNL     1      10.917   1.549  -5.129  1.00  0.00    -0.490 OA
BRANCH  23  24
ATOM     24  C   UNL     1      10.339   0.246  -5.212  1.00  0.00     0.257 C 
BRANCH  24  25
ATOM     25  C   UNL     1      10.193  -0.339  -3.837  1.00  0.00     0.006 C 
ATOM     26  C   UNL     1       9.021  -0.598  -3.241  1.00  0.00     0.007 C 
ENDBRANCH  24  25
ENDBRANCH  23  24
ENDBRANCH  18  23
ENDBRANCH   1  17
BRANCH   8  27
ATOM     27  C   UNL     1       1.529   8.369   0.167  1.00  0.00    -0.018 A 
ATOM     28  C   UNL     1       1.705   9.055   1.378  1.00  0.00     0.012 A 
ATOM     29  C   UNL     1       0.453   8.730  -0.654  1.00  0.00     0.012 A 
ATOM     30  C   UNL     1       0.833  10.082   1.759  1.00  0.00     0.047 A 
ATOM     31  C   UNL     1      -0.416   9.755  -0.273  1.00  0.00     0.047 A 
ATOM     32  C   UNL     1      -0.231  10.437   0.931  1.00  0.00     0.119 A 
BRANCH  32  33
ATOM     33  O   UNL     1      -1.153  11.418   1.178  1.00  0.00    -0.490 OA
BRANCH  33  34
ATOM     34  C   UNL     1      -0.657  12.736   1.393  1.00  0.00     0.257 C 
BRANCH  34  35
ATOM     35  C   UNL     1      -1.203  13.603   0.298  1.00  0.00     0.006 C 
ATOM     36  C   UNL     1      -0.981  13.416  -1.010  1.00  0.00     0.007 C 
ENDBRANCH  34  35
ENDBRANCH  33  34
ENDBRANCH  32  33
ENDBRANCH   8  27
TORSDOF 8
ENDMDL
MODEL 3
REMARK VINA RESULT:    -5.336      0.122     11.243
REMARK INTER + INTRA:          -9.779
REMARK INTER:                  -7.830
REMARK INTRA:                  -1.949
REMARK UNBOUND:                -1.948
REMARK SMILES C=CCOc1ccc(-c2ccc3ccc4c(-c5ccc(OCC=C)cc5)ccc5ccc2c3c54)cc1
REMARK SMILES IDX 9 1 10 2 11 3 12 4 13 5 14 6 15 7 16 8 27 9 28 10 29 11
REMARK SMILES IDX 30 12 31 13 32 14 33 15 34 16 8 17 5 18 6 19 36 20 7 21
REMARK SMILES IDX 35 22 4 23 3 24 2 25 1 26 17 27 18 28 26 29 19 30 25 31
REMARK SMILES IDX 20 32 21 33 22 34 23 35 24 36
REMARK H PARENT
REMARK Flexibility Score: inf
ROOT
ATOM      1  C   UNL     1       7.361   5.745  -3.560  1.00  0.00    -0.010 A 
ATOM      2  C   UNL     1       7.570   7.032  -4.082  1.00  0.00     0.010 A 
ATOM      3  C   UNL     1       6.731   8.088  -3.742  1.00  0.00     0.009 A 
ATOM      4  C   UNL     1       5.658   7.888  -2.869  1.00  0.00    -0.017 A 
ATOM      5  C   UNL     1       4.817   8.949  -2.531  1.00  0.00     0.009 A 
ATOM      6  C   UNL     1       3.744   8.758  -1.661  1.00  0.00     0.010 A 
ATOM      7  C   UNL     1       3.468   7.498  -1.091  1.00  0.00    -0.009 A 
ATOM      8  C   UNL     1       2.382   7.275  -0.199  1.00  0.00    -0.010 A 
ATOM      9  C   UNL     1       2.171   5.989   0.322  1.00  0.00     0.010 A 
ATOM     10  C   UNL     1       3.009   4.931  -0.019  1.00  0.00     0.009 A 
ATOM     11  C   UNL     1       4.083   5.131  -0.893  1.00  0.00    -0.017 A 
ATOM     12  C   UNL     1       4.922   4.069  -1.233  1.00  0.00     0.009 A 
ATOM     13  C   UNL     1       5.995   4.261  -2.104  1.00  0.00     0.010 A 
ATOM     14  C   UNL     1       6.274   5.521  -2.669  1.00  0.00    -0.009 A 
ATOM     15  C   UNL     1       5.420   6.604  -2.325  1.00  0.00    -0.002 A 
ATOM     16  C   UNL     1       4.321   6.415  -1.436  1.00  0.00    -0.002 A 
ENDROOT
BRANCH   1  17
ATOM     17  C   UNL     1       8.288   4.676  -3.965  1.00  0.00    -0.018 A 
ATOM     18  C   UNL     1      10.067   2.632  -4.759  1.00  0.00     0.119 A 
ATOM     19  C   UNL     1      10.333   3.411  -3.630  1.00  0.00     0.047 A 
ATOM     20  C   UNL     1       8.912   2.884  -5.499  1.00  0.00     0.047 A 
ATOM     21  C   UNL     1       9.455   4.422  -3.234  1.00  0.00     0.012 A 
ATOM     22  C   UNL     1       8.030   3.898  -5.103  1.00  0.00     0.012 A 
BRANCH  18  23
ATOM     23  O   UNL     1      11.016   1.688  -5.032  1.00  0.00    -0.490 OA
BRANCH  23  24
ATOM     24  C   UNL     1      10.613   0.332  -5.223  1.00  0.00     0.257 C 
BRANCH  24  25
ATOM     25  C   UNL     1      10.234  -0.280  -3.905  1.00  0.00     0.006 C 
ATOM     26  C   UNL     1       8.993  -0.660  -3.572  1.00  0.00     0.007 C 
ENDBRANCH  24  25
ENDBRANCH  23  24
ENDBRANCH  18  23
ENDBRANCH   1  17
BRANCH   8  27
ATOM     27  C   UNL     1       1.459   8.346   0.209  1.00  0.00    -0.018 A 
ATOM     28  C   UNL     1       0.334   8.659  -0.568  1.00  0.00     0.012 A 
ATOM     29  C   UNL     1       1.687   9.081   1.380  1.00  0.00     0.012 A 
ATOM     30  C   UNL     1      -0.548   9.676  -0.184  1.00  0.00     0.047 A 
ATOM     31  C   UNL     1       0.805  10.096   1.762  1.00  0.00     0.047 A 
ATOM     32  C   UNL     1      -0.316  10.398   0.986  1.00  0.00     0.119 A 
BRANCH  32  33
ATOM     33  O   UNL     1      -1.093  11.410   1.478  1.00  0.00    -0.490 OA
BRANCH  33  34
ATOM     34  C   UNL     1      -0.642  12.743   1.253  1.00  0.00     0.257 C 
BRANCH  34  35
ATOM     35  C   UNL     1      -1.421  13.289   0.094  1.00  0.00     0.006 C 
ATOM     36  C   UNL     1      -0.981  13.332  -1.172  1.00  0.00     0.007 C 
ENDBRANCH  34  35
ENDBRANCH  33  34
ENDBRANCH  32  33
ENDBRANCH   8  27
TORSDOF 8
ENDMDL
MODEL 4
REMARK VINA RESULT:    -5.246      3.556      6.507
REMARK INTER + INTRA:          -9.648
REMARK INTER:                  -7.701
REMARK INTRA:                  -1.946
REMARK UNBOUND:                -1.948
REMARK SMILES C=CCOc1ccc(-c2ccc3ccc4c(-c5ccc(OCC=C)cc5)ccc5ccc2c3c54)cc1
REMARK SMILES IDX 9 1 10 2 11 3 12 4 13 5 14 6 15 7 16 8 27 9 28 10 29 11
REMARK SMILES IDX 30 12 31 13 32 14 33 15 34 16 8 17 5 18 6 19 36 20 7 21
REMARK SMILES IDX 35 22 4 23 3 24 2 25 1 26 17 27 18 28 26 29 19 30 25 31
REMARK SMILES IDX 20 32 21 33 22 34 23 35 24 36
REMARK H PARENT
REMARK Flexibility Score: inf
ROOT
ATOM      1  C   UNL     1       2.210   6.618   0.160  1.00  0.00    -0.010 A 
ATOM      2  C   UNL     1       1.751   7.902  -0.179  1.00  0.00     0.010 A 
ATOM      3  C   UNL     1       2.407   8.668  -1.137  1.00  0.00     0.009 A 
ATOM      4  C   UNL     1       3.542   8.173  -1.784  1.00  0.00    -0.017 A 
ATOM      5  C   UNL     1       4.200   8.944  -2.743  1.00  0.00     0.009 A 
ATOM      6  C   UNL     1       5.333   8.457  -3.394  1.00  0.00     0.010 A 
ATOM      7  C   UNL     1       5.855   7.178  -3.114  1.00  0.00    -0.009 A 
ATOM      8  C   UNL     1       7.009   6.655  -3.765  1.00  0.00    -0.010 A 
ATOM      9  C   UNL     1       7.469   5.373  -3.426  1.00  0.00     0.010 A 
ATOM     10  C   UNL     1       6.814   4.607  -2.466  1.00  0.00     0.009 A 
ATOM     11  C   UNL     1       5.678   5.102  -1.818  1.00  0.00    -0.017 A 
ATOM     12  C   UNL     1       5.022   4.332  -0.856  1.00  0.00     0.009 A 
ATOM     13  C   UNL     1       3.889   4.819  -0.205  1.00  0.00     0.010 A 
ATOM     14  C   UNL     1       3.364   6.096  -0.489  1.00  0.00    -0.009 A 
ATOM     15  C   UNL     1       4.030   6.883  -1.467  1.00  0.00    -0.002 A 
ATOM     16  C   UNL     1       5.190   6.391  -2.136  1.00  0.00    -0.002 A 
ENDROOT
BRANCH   1  17
ATOM     17  C   UNL     1       1.466   5.867   1.183  1.00  0.00    -0.018 A 
ATOM     18  C   UNL     1       0.042   4.410   3.139  1.00  0.00     0.119 A 
ATOM     19  C   UNL     1       1.030   5.326   3.510  1.00  0.00     0.047 A 
ATOM     20  C   UNL     1      -0.227   4.216   1.785  1.00  0.00     0.047 A 
ATOM     21  C   UNL     1       1.736   6.048   2.545  1.00  0.00     0.012 A 
ATOM     22  C   UNL     1       0.480   4.940   0.816  1.00  0.00     0.012 A 
BRANCH  18  23
ATOM     23  O   UNL     1      -0.557   3.770   4.186  1.00  0.00    -0.490 OA
BRANCH  23  24
ATOM     24  C   UNL     1       0.214   2.875   4.987  1.00  0.00     0.257 C 
BRANCH  24  25
ATOM     25  C   UNL     1      -0.099   1.454   4.615  1.00  0.00     0.006 C 
ATOM     26  C   UNL     1       0.519   0.768   3.644  1.00  0.00     0.007 C 
ENDBRANCH  24  25
ENDBRANCH  23  24
ENDBRANCH  18  23
ENDBRANCH   1  17
BRANCH   8  27
ATOM     27  C   UNL     1       7.749   7.407  -4.791  1.00  0.00    -0.018 A 
ATOM     28  C   UNL     1       7.410   7.293  -6.147  1.00  0.00     0.012 A 
ATOM     29  C   UNL     1       8.811   8.248  -4.436  1.00  0.00     0.012 A 
ATOM     30  C   UNL     1       8.110   8.008  -7.127  1.00  0.00     0.047 A 
ATOM     31  C   UNL     1       9.508   8.961  -5.415  1.00  0.00     0.047 A 
ATOM     32  C   UNL     1       9.162   8.847  -6.763  1.00  0.00     0.119 A 
BRANCH  32  33
ATOM     33  O   UNL     1       9.924   9.601  -7.612  1.00  0.00    -0.490 OA
BRANCH  33  34
ATOM     34  C   UNL     1       9.895  11.014  -7.431  1.00  0.00     0.257 C 
BRANCH  34  35
ATOM     35  C   UNL     1       8.698  11.536  -8.166  1.00  0.00     0.006 C 
ATOM     36  C   UNL     1       7.644  12.130  -7.589  1.00  0.00     0.007 C 
ENDBRANCH  34  35
ENDBRANCH  33  34
ENDBRANCH  32  33
ENDBRANCH   8  27
TORSDOF 8
ENDMDL
MODEL 5
REMARK VINA RESULT:    -5.226      3.549      9.244
REMARK INTER + INTRA:          -9.617
REMARK INTER:                  -7.673
REMARK INTRA:                  -1.944
REMARK UNBOUND:                -1.948
REMARK SMILES C=CCOc1ccc(-c2ccc3ccc4c(-c5ccc(OCC=C)cc5)ccc5ccc2c3c54)cc1
REMARK SMILES IDX 9 1 10 2 11 3 12 4 13 5 14 6 15 7 16 8 27 9 28 10 29 11
REMARK SMILES IDX 30 12 31 13 32 14 33 15 34 16 8 17 5 18 6 19 36 20 7 21
REMARK SMILES IDX 35 22 4 23 3 24 2 25 1 26 17 27 18 28 26 29 19 30 25 31
REMARK SMILES IDX 20 32 21 33 22 34 23 35 24 36
REMARK H PARENT
REMARK Flexibility Score: inf
ROOT
ATOM      1  C   UNL     1       7.091   6.694  -3.702  1.00  0.00    -0.010 A 
ATOM      2  C   UNL     1       7.548   5.413  -3.354  1.00  0.00     0.010 A 
ATOM      3  C   UNL     1       6.865   4.637  -2.421  1.00  0.00     0.009 A 
ATOM      4  C   UNL     1       5.705   5.122  -1.811  1.00  0.00    -0.017 A 
ATOM      5  C   UNL     1       5.023   4.343  -0.875  1.00  0.00     0.009 A 
ATOM      6  C   UNL     1       3.864   4.820  -0.262  1.00  0.00     0.010 A 
ATOM      7  C   UNL     1       3.339   6.094  -0.559  1.00  0.00    -0.009 A 
ATOM      8  C   UNL     1       2.158   6.604   0.051  1.00  0.00    -0.010 A 
ATOM      9  C   UNL     1       1.703   7.886  -0.295  1.00  0.00     0.010 A 
ATOM     10  C   UNL     1       2.387   8.662  -1.226  1.00  0.00     0.009 A 
ATOM     11  C   UNL     1       3.547   8.177  -1.837  1.00  0.00    -0.017 A 
ATOM     12  C   UNL     1       4.231   8.957  -2.771  1.00  0.00     0.009 A 
ATOM     13  C   UNL     1       5.390   8.481  -3.385  1.00  0.00     0.010 A 
ATOM     14  C   UNL     1       5.912   7.205  -3.091  1.00  0.00    -0.009 A 
ATOM     15  C   UNL     1       5.218   6.409  -2.140  1.00  0.00    -0.002 A 
ATOM     16  C   UNL     1       4.034   6.890  -1.509  1.00  0.00    -0.002 A 
ENDROOT
BRANCH   1  17
ATOM     17  C   UNL     1       7.866   7.457  -4.694  1.00  0.00    -0.018 A 
ATOM     18  C   UNL     1       9.338   8.926  -6.603  1.00  0.00     0.119 A 
ATOM     19  C   UNL     1       9.629   9.035  -5.241  1.00  0.00     0.047 A 
ATOM     20  C   UNL     1       8.302   8.087  -7.010  1.00  0.00     0.047 A 
ATOM     21  C   UNL     1       8.903   8.309  -4.294  1.00  0.00     0.012 A 
ATOM     22  C   UNL     1       7.573   7.358  -6.062  1.00  0.00     0.012 A 
BRANCH  18  23
ATOM     23  O   UNL     1      10.121   9.700  -7.412  1.00  0.00    -0.490 OA
BRANCH  23  24
ATOM     24  C   UNL     1       9.499  10.542  -8.383  1.00  0.00     0.257 C 
BRANCH  24  25
ATOM     25  C   UNL     1       8.947  11.770  -7.719  1.00  0.00     0.006 C 
ATOM     26  C   UNL     1       7.643  12.058  -7.614  1.00  0.00     0.007 C 
ENDBRANCH  24  25
ENDBRANCH  23  24
ENDBRANCH  18  23
ENDBRANCH   1  17
BRANCH   8  27
ATOM     27  C   UNL     1       1.383   5.838   1.040  1.00  0.00    -0.018 A 
ATOM     28  C   UNL     1       0.328   5.006   0.636  1.00  0.00     0.012 A 
ATOM     29  C   UNL     1       1.677   5.927   2.407  1.00  0.00     0.012 A 
ATOM     30  C   UNL     1      -0.411   4.273   1.573  1.00  0.00     0.047 A 
ATOM     31  C   UNL     1       0.938   5.196   3.340  1.00  0.00     0.047 A 
ATOM     32  C   UNL     1      -0.106   4.365   2.930  1.00  0.00     0.119 A 
BRANCH  32  33
ATOM     33  O   UNL     1      -0.743   3.706   3.946  1.00  0.00    -0.490 OA
BRANCH  33  34
ATOM     34  C   UNL     1       0.077   3.039   4.901  1.00  0.00     0.257 C 
BRANCH  34  35
ATOM     35  C   UNL     1      -0.061   1.566   4.658  1.00  0.00     0.006 C 
ATOM     36  C   UNL     1       0.519   0.898   3.650  1.00  0.00     0.007 C 
ENDBRANCH  34  35
ENDBRANCH  33  34
ENDBRANCH  32  33
ENDBRANCH   8  27
TORSDOF 8
ENDMDL
MODEL 6
REMARK VINA RESULT:    -5.222      2.136     10.996
REMARK INTER + INTRA:          -9.612
REMARK INTER:                  -7.651
REMARK INTRA:                  -1.961
REMARK UNBOUND:                -1.948
REMARK SMILES C=CCOc1ccc(-c2ccc3ccc4c(-c5ccc(OCC=C)cc5)ccc5ccc2c3c54)cc1
REMARK SMILES IDX 9 1 10 2 11 3 12 4 13 5 14 6 15 7 16 8 27 9 28 10 29 11
REMARK SMILES IDX 30 12 31 13 32 14 33 15 34 16 8 17 5 18 6 19 36 20 7 21
REMARK SMILES IDX 35 22 4 23 3 24 2 25 1 26 17 27 18 28 26 29 19 30 25 31
REMARK SMILES IDX 20 32 21 33 22 34 23 35 24 36
REMARK H PARENT
REMARK Flexibility Score: inf
ROOT
ATOM      1  C   UNL     1       7.364   6.399  -3.999  1.00  0.00    -0.010 A 
ATOM      2  C   UNL     1       7.960   7.625  -3.660  1.00  0.00     0.010 A 
ATOM      3  C   UNL     1       7.384   8.464  -2.710  1.00  0.00     0.009 A 
ATOM      4  C   UNL     1       6.196   8.100  -2.072  1.00  0.00    -0.017 A 
ATOM      5  C   UNL     1       5.619   8.944  -1.122  1.00  0.00     0.009 A 
ATOM      6  C   UNL     1       4.433   8.589  -0.480  1.00  0.00     0.010 A 
ATOM      7  C   UNL     1       3.774   7.375  -0.762  1.00  0.00    -0.009 A 
ATOM      8  C   UNL     1       2.563   6.986  -0.121  1.00  0.00    -0.010 A 
ATOM      9  C   UNL     1       1.966   5.762  -0.460  1.00  0.00     0.010 A 
ATOM     10  C   UNL     1       2.541   4.924  -1.411  1.00  0.00     0.009 A 
ATOM     11  C   UNL     1       3.730   5.287  -2.050  1.00  0.00    -0.017 A 
ATOM     12  C   UNL     1       4.305   4.444  -3.003  1.00  0.00     0.009 A 
ATOM     13  C   UNL     1       5.492   4.800  -3.644  1.00  0.00     0.010 A 
ATOM     14  C   UNL     1       6.153   6.011  -3.359  1.00  0.00    -0.009 A 
ATOM     15  C   UNL     1       5.570   6.872  -2.390  1.00  0.00    -0.002 A 
ATOM     16  C   UNL     1       4.357   6.515  -1.731  1.00  0.00    -0.002 A 
ENDROOT
BRANCH   1  17
ATOM     17  C   UNL     1       8.029   5.565  -5.012  1.00  0.00    -0.018 A 
ATOM     18  C   UNL     1       9.301   3.951  -6.949  1.00  0.00     0.119 A 
ATOM     19  C   UNL     1       8.366   4.918  -7.328  1.00  0.00     0.047 A 
ATOM     20  C   UNL     1       9.592   3.784  -5.596  1.00  0.00     0.047 A 
ATOM     21  C   UNL     1       7.736   5.718  -6.373  1.00  0.00     0.012 A 
ATOM     22  C   UNL     1       8.961   4.587  -4.636  1.00  0.00     0.012 A 
BRANCH  18  23
ATOM     23  O   UNL     1       9.828   3.236  -7.987  1.00  0.00    -0.490 OA
BRANCH  23  24
ATOM     24  C   UNL     1       8.973   2.389  -8.754  1.00  0.00     0.257 C 
BRANCH  24  25
ATOM     25  C   UNL     1       8.528   1.221  -7.922  1.00  0.00     0.006 C 
ATOM     26  C   UNL     1       7.269   1.013  -7.513  1.00  0.00     0.007 C 
ENDBRANCH  24  25
ENDBRANCH  23  24
ENDBRANCH  18  23
ENDBRANCH   1  17
BRANCH   8  27
ATOM     27  C   UNL     1       1.902   7.820   0.896  1.00  0.00    -0.018 A 
ATOM     28  C   UNL     1       1.006   8.832   0.522  1.00  0.00     0.012 A 
ATOM     29  C   UNL     1       2.159   7.625   2.260  1.00  0.00     0.012 A 
ATOM     30  C   UNL     1       0.373   9.626   1.486  1.00  0.00     0.047 A 
ATOM     31  C   UNL     1       1.526   8.419   3.220  1.00  0.00     0.047 A 
ATOM     32  C   UNL     1       0.630   9.421   2.840  1.00  0.00     0.119 A 
BRANCH  32  33
ATOM     33  O   UNL     1       0.083  10.119   3.881  1.00  0.00    -0.490 OA
BRANCH  33  34
ATOM     34  C   UNL     1      -0.184  11.502   3.666  1.00  0.00     0.257 C 
BRANCH  34  35
ATOM     35  C   UNL     1       1.055  12.260   4.036  1.00  0.00     0.006 C 
ATOM     36  C   UNL     1       1.643  13.189   3.269  1.00  0.00     0.007 C 
ENDBRANCH  34  35
ENDBRANCH  33  34
ENDBRANCH  32  33
ENDBRANCH   8  27
TORSDOF 8
ENDMDL
MODEL 7
REMARK VINA RESULT:    -5.217      2.172      2.532
REMARK INTER + INTRA:          -9.604
REMARK INTER:                  -7.713
REMARK INTRA:                  -1.891
REMARK UNBOUND:                -1.948
REMARK SMILES C=CCOc1ccc(-c2ccc3ccc4c(-c5ccc(OCC=C)cc5)ccc5ccc2c3c54)cc1
REMARK SMILES IDX 9 1 10 2 11 3 12 4 13 5 14 6 15 7 16 8 27 9 28 10 29 11
REMARK SMILES IDX 30 12 31 13 32 14 33 15 34 16 8 17 5 18 6 19 36 20 7 21
REMARK SMILES IDX 35 22 4 23 3 24 2 25 1 26 17 27 18 28 26 29 19 30 25 31
REMARK SMILES IDX 20 32 21 33 22 34 23 35 24 36
REMARK H PARENT
REMARK Flexibility Score: inf
ROOT
ATOM      1  C   UNL     1       2.567   7.075  -0.013  1.00  0.00    -0.010 A 
ATOM      2  C   UNL     1       1.930   5.859  -0.308  1.00  0.00     0.010 A 
ATOM      3  C   UNL     1       2.448   4.991  -1.264  1.00  0.00     0.009 A 
ATOM      4  C   UNL     1       3.619   5.316  -1.954  1.00  0.00    -0.017 A 
ATOM      5  C   UNL     1       4.136   4.444  -2.914  1.00  0.00     0.009 A 
ATOM      6  C   UNL     1       5.305   4.760  -3.607  1.00  0.00     0.010 A 
ATOM      7  C   UNL     1       6.006   5.960  -3.368  1.00  0.00    -0.009 A 
ATOM      8  C   UNL     1       7.201   6.307  -4.059  1.00  0.00    -0.010 A 
ATOM      9  C   UNL     1       7.838   7.523  -3.766  1.00  0.00     0.010 A 
ATOM     10  C   UNL     1       7.318   8.392  -2.811  1.00  0.00     0.009 A 
ATOM     11  C   UNL     1       6.146   8.068  -2.121  1.00  0.00    -0.017 A 
ATOM     12  C   UNL     1       5.628   8.940  -1.163  1.00  0.00     0.009 A 
ATOM     13  C   UNL     1       4.459   8.625  -0.470  1.00  0.00     0.010 A 
ATOM     14  C   UNL     1       3.762   7.423  -0.705  1.00  0.00    -0.009 A 
ATOM     15  C   UNL     1       4.286   6.533  -1.681  1.00  0.00    -0.002 A 
ATOM     16  C   UNL     1       5.480   6.850  -2.393  1.00  0.00    -0.002 A 
ENDROOT
BRANCH   1  17
ATOM     17  C   UNL     1       1.961   7.943   1.008  1.00  0.00    -0.018 A 
ATOM     18  C   UNL     1       0.781   9.605   2.963  1.00  0.00     0.119 A 
ATOM     19  C   UNL     1       1.644   8.570   3.333  1.00  0.00     0.047 A 
ATOM     20  C   UNL     1       0.500   9.802   1.612  1.00  0.00     0.047 A 
ATOM     21  C   UNL     1       2.230   7.746   2.369  1.00  0.00     0.012 A 
ATOM     22  C   UNL     1       1.087   8.977   0.643  1.00  0.00     0.012 A 
BRANCH  18  23
ATOM     23  O   UNL     1       0.275  10.321   4.010  1.00  0.00    -0.490 OA
BRANCH  23  24
ATOM     24  C   UNL     1       1.143  11.182   4.747  1.00  0.00     0.257 C 
BRANCH  24  25
ATOM     25  C   UNL     1       0.972  12.601   4.286  1.00  0.00     0.006 C 
ATOM     26  C   UNL     1       1.644  13.157   3.269  1.00  0.00     0.007 C 
ENDBRANCH  24  25
ENDBRANCH  23  24
ENDBRANCH  18  23
ENDBRANCH   1  17
BRANCH   8  27
ATOM     27  C   UNL     1       7.809   5.435  -5.077  1.00  0.00    -0.018 A 
ATOM     28  C   UNL     1       8.767   4.475  -4.722  1.00  0.00     0.012 A 
ATOM     29  C   UNL     1       7.447   5.550  -6.426  1.00  0.00     0.012 A 
ATOM     30  C   UNL     1       9.346   3.642  -5.687  1.00  0.00     0.047 A 
ATOM     31  C   UNL     1       8.026   4.718  -7.388  1.00  0.00     0.047 A 
ATOM     32  C   UNL     1       8.975   3.760  -7.026  1.00  0.00     0.119 A 
BRANCH  32  33
ATOM     33  O   UNL     1       9.457   3.014  -8.065  1.00  0.00    -0.490 OA
BRANCH  33  34
ATOM     34  C   UNL     1       8.506   2.289  -8.841  1.00  0.00     0.257 C 
BRANCH  34  35
ATOM     35  C   UNL     1       8.157   1.048  -8.076  1.00  0.00     0.006 C 
ATOM     36  C   UNL     1       6.967   0.433  -8.116  1.00  0.00     0.007 C 
ENDBRANCH  34  35
ENDBRANCH  33  34
ENDBRANCH  32  33
ENDBRANCH   8  27
TORSDOF 8
ENDMDL
MODEL 8
REMARK VINA RESULT:    -5.199      3.756      6.940
REMARK INTER + INTRA:          -9.578
REMARK INTER:                  -7.698
REMARK INTRA:                  -1.880
REMARK UNBOUND:                -1.948
REMARK SMILES C=CCOc1ccc(-c2ccc3ccc4c(-c5ccc(OCC=C)cc5)ccc5ccc2c3c54)cc1
REMARK SMILES IDX 9 1 10 2 11 3 12 4 13 5 14 6 15 7 16 8 27 9 28 10 29 11
REMARK SMILES IDX 30 12 31 13 32 14 33 15 34 16 8 17 5 18 6 19 36 20 7 21
REMARK SMILES IDX 35 22 4 23 3 24 2 25 1 26 17 27 18 28 26 29 19 30 25 31
REMARK SMILES IDX 20 32 21 33 22 34 23 35 24 36
REMARK H PARENT
REMARK Flexibility Score: inf
ROOT
ATOM      1  C   UNL     1       1.683   6.478  -0.090  1.00  0.00    -0.010 A 
ATOM      2  C   UNL     1       1.234   7.799  -0.251  1.00  0.00     0.010 A 
ATOM      3  C   UNL     1       1.987   8.730  -0.961  1.00  0.00     0.009 A 
ATOM      4  C   UNL     1       3.209   8.365  -1.532  1.00  0.00    -0.017 A 
ATOM      5  C   UNL     1       3.962   9.301  -2.242  1.00  0.00     0.009 A 
ATOM      6  C   UNL     1       5.183   8.945  -2.814  1.00  0.00     0.010 A 
ATOM      7  C   UNL     1       5.702   7.639  -2.701  1.00  0.00    -0.009 A 
ATOM      8  C   UNL     1       6.944   7.248  -3.276  1.00  0.00    -0.010 A 
ATOM      9  C   UNL     1       7.394   5.928  -3.114  1.00  0.00     0.010 A 
ATOM     10  C   UNL     1       6.642   4.998  -2.402  1.00  0.00     0.009 A 
ATOM     11  C   UNL     1       5.419   5.362  -1.831  1.00  0.00    -0.017 A 
ATOM     12  C   UNL     1       4.667   4.427  -1.118  1.00  0.00     0.009 A 
ATOM     13  C   UNL     1       3.446   4.783  -0.545  1.00  0.00     0.010 A 
ATOM     14  C   UNL     1       2.926   6.087  -0.663  1.00  0.00    -0.009 A 
ATOM     15  C   UNL     1       3.689   7.042  -1.388  1.00  0.00    -0.002 A 
ATOM     16  C   UNL     1       4.939   6.685  -1.975  1.00  0.00    -0.002 A 
ENDROOT
BRANCH   1  17
ATOM     17  C   UNL     1       0.835   5.550   0.675  1.00  0.00    -0.018 A 
ATOM     18  C   UNL     1      -0.794   3.781   2.155  1.00  0.00     0.119 A 
ATOM     19  C   UNL     1      -1.035   4.005   0.797  1.00  0.00     0.047 A 
ATOM     20  C   UNL     1       0.259   4.451   2.776  1.00  0.00     0.047 A 
ATOM     21  C   UNL     1      -0.230   4.879   0.062  1.00  0.00     0.012 A 
ATOM     22  C   UNL     1       1.067   5.328   2.040  1.00  0.00     0.012 A 
BRANCH  18  23
ATOM     23  O   UNL     1      -1.665   2.911   2.748  1.00  0.00    -0.490 OA
BRANCH  23  24
ATOM     24  C   UNL     1      -1.529   1.512   2.496  1.00  0.00     0.257 C 
BRANCH  24  25
ATOM     25  C   UNL     1      -0.797   0.855   3.631  1.00  0.00     0.006 C 
ATOM     26  C   UNL     1       0.519   0.602   3.644  1.00  0.00     0.007 C 
ENDBRANCH  24  25
ENDBRANCH  23  24
ENDBRANCH  18  23
ENDBRANCH   1  17
BRANCH   8  27
ATOM     27  C   UNL     1       7.788   8.177  -4.045  1.00  0.00    -0.018 A 
ATOM     28  C   UNL     1       7.632   8.308  -5.433  1.00  0.00     0.012 A 
ATOM     29  C   UNL     1       8.770   8.947  -3.408  1.00  0.00     0.012 A 
ATOM     30  C   UNL     1       8.431   9.192  -6.168  1.00  0.00     0.047 A 
ATOM     31  C   UNL     1       9.567   9.829  -4.143  1.00  0.00     0.047 A 
ATOM     32  C   UNL     1       9.402   9.958  -5.524  1.00  0.00     0.119 A 
BRANCH  32  33
ATOM     33  O   UNL     1      10.245  10.857  -6.116  1.00  0.00    -0.490 OA
BRANCH  33  34
ATOM     34  C   UNL     1       9.658  11.825  -6.982  1.00  0.00     0.257 C 
BRANCH  34  35
ATOM     35  C   UNL     1       8.935  12.815  -6.120  1.00  0.00     0.006 C 
ATOM     36  C   UNL     1       9.522  13.800  -5.424  1.00  0.00     0.007 C 
ENDBRANCH  34  35
ENDBRANCH  33  34
ENDBRANCH  32  33
ENDBRANCH   8  27
TORSDOF 8
ENDMDL
MODEL 9
REMARK VINA RESULT:    -5.176      3.695      9.075
REMARK INTER + INTRA:          -9.545
REMARK INTER:                  -7.674
REMARK INTRA:                  -1.871
REMARK UNBOUND:                -1.948
REMARK SMILES C=CCOc1ccc(-c2ccc3ccc4c(-c5ccc(OCC=C)cc5)ccc5ccc2c3c54)cc1
REMARK SMILES IDX 9 1 10 2 11 3 12 4 13 5 14 6 15 7 16 8 27 9 28 10 29 11
REMARK SMILES IDX 30 12 31 13 32 14 33 15 34 16 8 17 5 18 6 19 36 20 7 21
REMARK SMILES IDX 35 22 4 23 3 24 2 25 1 26 17 27 18 28 26 29 19 30 25 31
REMARK SMILES IDX 20 32 21 33 22 34 23 35 24 36
REMARK H PARENT
REMARK Flexibility Score: inf
ROOT
ATOM      1  C   UNL     1       6.825   7.110  -3.417  1.00  0.00    -0.010 A 
ATOM      2  C   UNL     1       7.316   5.816  -3.180  1.00  0.00     0.010 A 
ATOM      3  C   UNL     1       6.642   4.937  -2.338  1.00  0.00     0.009 A 
ATOM      4  C   UNL     1       5.456   5.327  -1.711  1.00  0.00    -0.017 A 
ATOM      5  C   UNL     1       4.782   4.443  -0.866  1.00  0.00     0.009 A 
ATOM      6  C   UNL     1       3.597   4.825  -0.236  1.00  0.00     0.010 A 
ATOM      7  C   UNL     1       3.037   6.105  -0.424  1.00  0.00    -0.009 A 
ATOM      8  C   UNL     1       1.829   6.519   0.205  1.00  0.00    -0.010 A 
ATOM      9  C   UNL     1       1.339   7.813  -0.031  1.00  0.00     0.010 A 
ATOM     10  C   UNL     1       2.014   8.694  -0.871  1.00  0.00     0.009 A 
ATOM     11  C   UNL     1       3.201   8.304  -1.499  1.00  0.00    -0.017 A 
ATOM     12  C   UNL     1       3.877   9.188  -2.342  1.00  0.00     0.009 A 
ATOM     13  C   UNL     1       5.061   8.807  -2.972  1.00  0.00     0.010 A 
ATOM     14  C   UNL     1       5.618   7.526  -2.787  1.00  0.00    -0.009 A 
ATOM     15  C   UNL     1       4.933   6.624  -1.929  1.00  0.00    -0.002 A 
ATOM     16  C   UNL     1       3.723   7.007  -1.281  1.00  0.00    -0.002 A 
ENDROOT
BRANCH   1  17
ATOM     17  C   UNL     1       7.593   7.985  -4.317  1.00  0.00    -0.018 A 
ATOM     18  C   UNL     1       9.081   9.659  -6.038  1.00  0.00     0.119 A 
ATOM     19  C   UNL     1       8.073   8.833  -6.542  1.00  0.00     0.047 A 
ATOM     20  C   UNL     1       9.351   9.640  -4.671  1.00  0.00     0.047 A 
ATOM     21  C   UNL     1       7.334   8.004  -5.693  1.00  0.00     0.012 A 
ATOM     22  C   UNL     1       8.612   8.810  -3.818  1.00  0.00     0.012 A 
BRANCH  18  23
ATOM     23  O   UNL     1       9.725  10.406  -6.983  1.00  0.00    -0.490 OA
BRANCH  23  24
ATOM     24  C   UNL     1       9.787  11.823  -6.825  1.00  0.00     0.257 C 
BRANCH  24  25
ATOM     25  C   UNL     1       8.403  12.404  -6.856  1.00  0.00     0.006 C 
ATOM     26  C   UNL     1       7.665  12.555  -7.965  1.00  0.00     0.007 C 
ENDBRANCH  24  25
ENDBRANCH  23  24
ENDBRANCH  18  23
ENDBRANCH   1  17
BRANCH   8  27
ATOM     27  C   UNL     1       1.060   5.641   1.101  1.00  0.00    -0.018 A 
ATOM     28  C   UNL     1       1.337   5.598   2.475  1.00  0.00     0.012 A 
ATOM     29  C   UNL     1       0.039   4.823   0.600  1.00  0.00     0.012 A 
ATOM     30  C   UNL     1       0.607   4.766   3.332  1.00  0.00     0.047 A 
ATOM     31  C   UNL     1      -0.688   3.993   1.457  1.00  0.00     0.047 A 
ATOM     32  C   UNL     1      -0.411   3.960   2.825  1.00  0.00     0.119 A 
BRANCH  32  33
ATOM     33  O   UNL     1      -1.199   3.106   3.546  1.00  0.00    -0.490 OA
BRANCH  33  34
ATOM     34  C   UNL     1      -1.153   1.726   3.194  1.00  0.00     0.257 C 
BRANCH  34  35
ATOM     35  C   UNL     1       0.174   1.193   3.644  1.00  0.00     0.006 C 
ATOM     36  C   UNL     1       0.429   0.706   4.867  1.00  0.00     0.007 C 
ENDBRANCH  34  35
ENDBRANCH  33  34
ENDBRANCH  32  33
ENDBRANCH   8  27
TORSDOF 8
ENDMDL
MODEL 10
REMARK VINA RESULT:    -5.133      1.123      1.760
REMARK INTER + INTRA:          -9.481
REMARK INTER:                  -7.570
REMARK INTRA:                  -1.911
REMARK UNBOUND:                -1.948
REMARK SMILES C=CCOc1ccc(-c2ccc3ccc4c(-c5ccc(OCC=C)cc5)ccc5ccc2c3c54)cc1
REMARK SMILES IDX 9 1 10 2 11 3 12 4 13 5 14 6 15 7 16 8 27 9 28 10 29 11
REMARK SMILES IDX 30 12 31 13 32 14 33 15 34 16 8 17 5 18 6 19 36 20 7 21
REMARK SMILES IDX 35 22 4 23 3 24 2 25 1 26 17 27 18 28 26 29 19 30 25 31
REMARK SMILES IDX 20 32 21 33 22 34 23 35 24 36
REMARK H PARENT
REMARK Flexibility Score: inf
ROOT
ATOM      1  C   UNL     1       2.246   7.238  -0.223  1.00  0.00    -0.010 A 
ATOM      2  C   UNL     1       1.668   5.965  -0.359  1.00  0.00     0.010 A 
ATOM      3  C   UNL     1       2.335   4.943  -1.028  1.00  0.00     0.009 A 
ATOM      4  C   UNL     1       3.599   5.165  -1.580  1.00  0.00    -0.017 A 
ATOM      5  C   UNL     1       4.265   4.139  -2.252  1.00  0.00     0.009 A 
ATOM      6  C   UNL     1       5.527   4.352  -2.806  1.00  0.00     0.010 A 
ATOM      7  C   UNL     1       6.177   5.600  -2.710  1.00  0.00    -0.009 A 
ATOM      8  C   UNL     1       7.465   5.844  -3.264  1.00  0.00    -0.010 A 
ATOM      9  C   UNL     1       8.043   7.117  -3.129  1.00  0.00     0.010 A 
ATOM     10  C   UNL     1       7.375   8.140  -2.462  1.00  0.00     0.009 A 
ATOM     11  C   UNL     1       6.110   7.918  -1.910  1.00  0.00    -0.017 A 
ATOM     12  C   UNL     1       5.443   8.945  -1.240  1.00  0.00     0.009 A 
ATOM     13  C   UNL     1       4.180   8.732  -0.686  1.00  0.00     0.010 A 
ATOM     14  C   UNL     1       3.533   7.483  -0.778  1.00  0.00    -0.009 A 
ATOM     15  C   UNL     1       4.210   6.436  -1.460  1.00  0.00    -0.002 A 
ATOM     16  C   UNL     1       5.500   6.647  -2.029  1.00  0.00    -0.002 A 
ENDROOT
BRANCH   1  17
ATOM     17  C   UNL     1       1.482   8.269   0.496  1.00  0.00    -0.018 A 
ATOM     18  C   UNL     1       0.029  10.255   1.882  1.00  0.00     0.119 A 
ATOM     19  C   UNL     1      -0.096  10.115   0.497  1.00  0.00     0.047 A 
ATOM     20  C   UNL     1       0.891   9.405   2.573  1.00  0.00     0.047 A 
ATOM     21  C   UNL     1       0.620   9.134  -0.191  1.00  0.00     0.012 A 
ATOM     22  C   UNL     1       1.610   8.419   1.884  1.00  0.00     0.012 A 
BRANCH  18  23
ATOM     23  O   UNL     1      -0.723  11.261   2.419  1.00  0.00    -0.490 OA
BRANCH  23  24
ATOM     24  C   UNL     1      -0.452  12.610   2.038  1.00  0.00     0.257 C 
BRANCH  24  25
ATOM     25  C   UNL     1       0.323  13.303   3.121  1.00  0.00     0.006 C 
ATOM     26  C   UNL     1       1.653  13.234   3.269  1.00  0.00     0.007 C 
ENDBRANCH  24  25
ENDBRANCH  23  24
ENDBRANCH  18  23
ENDBRANCH   1  17
BRANCH   8  27
ATOM     27  C   UNL     1       8.230   4.810  -3.978  1.00  0.00    -0.018 A 
ATOM     28  C   UNL     1       8.054   4.610  -5.355  1.00  0.00     0.012 A 
ATOM     29  C   UNL     1       9.147   3.998  -3.297  1.00  0.00     0.012 A 
ATOM     30  C   UNL     1       8.780   3.628  -6.040  1.00  0.00     0.047 A 
ATOM     31  C   UNL     1       9.871   3.019  -3.982  1.00  0.00     0.047 A 
ATOM     32  C   UNL     1       9.695   2.829  -5.354  1.00  0.00     0.119 A 
BRANCH  32  33
ATOM     33  O   UNL     1      10.468   1.840  -5.897  1.00  0.00    -0.490 OA
BRANCH  33  34
ATOM     34  C   UNL     1       9.806   0.861  -6.693  1.00  0.00     0.257 C 
BRANCH  34  35
ATOM     35  C   UNL     1       9.535  -0.323  -5.814  1.00  0.00     0.006 C 
ATOM     36  C   UNL     1       8.394  -0.533  -5.142  1.00  0.00     0.007 C 
ENDBRANCH  34  35
ENDBRANCH  33  34
ENDBRANCH  32  33
ENDBRANCH   8  27
TORSDOF 8
ENDMDL
MODEL 11
REMARK VINA RESULT:    -4.855      2.483      3.194
REMARK INTER + INTRA:          -9.073
REMARK INTER:                  -7.418
REMARK INTRA:                  -1.654
REMARK UNBOUND:                -1.948
REMARK SMILES C=CCOc1ccc(-c2ccc3ccc4c(-c5ccc(OCC=C)cc5)ccc5ccc2c3c54)cc1
REMARK SMILES IDX 9 1 10 2 11 3 12 4 13 5 14 6 15 7 16 8 27 9 28 10 29 11
REMARK SMILES IDX 30 12 31 13 32 14 33 15 34 16 8 17 5 18 6 19 36 20 7 21
REMARK SMILES IDX 35 22 4 23 3 24 2 25 1 26 17 27 18 28 26 29 19 30 25 31
REMARK SMILES IDX 20 32 21 33 22 34 23 35 24 36
REMARK H PARENT
REMARK Flexibility Score: inf
ROOT
ATOM      1  C   UNL     1       1.970   7.635   0.292  1.00  0.00    -0.010 A 
ATOM      2  C   UNL     1       0.926   7.179  -0.530  1.00  0.00     0.010 A 
ATOM      3  C   UNL     1       1.190   6.498  -1.714  1.00  0.00     0.009 A 
ATOM      4  C   UNL     1       2.507   6.252  -2.110  1.00  0.00    -0.017 A 
ATOM      5  C   UNL     1       2.770   5.569  -3.299  1.00  0.00     0.009 A 
ATOM      6  C   UNL     1       4.082   5.320  -3.702  1.00  0.00     0.010 A 
ATOM      7  C   UNL     1       5.186   5.741  -2.932  1.00  0.00    -0.009 A 
ATOM      8  C   UNL     1       6.534   5.498  -3.318  1.00  0.00    -0.010 A 
ATOM      9  C   UNL     1       7.578   5.954  -2.499  1.00  0.00     0.010 A 
ATOM     10  C   UNL     1       7.314   6.638  -1.315  1.00  0.00     0.009 A 
ATOM     11  C   UNL     1       5.996   6.884  -0.919  1.00  0.00    -0.017 A 
ATOM     12  C   UNL     1       5.733   7.569   0.269  1.00  0.00     0.009 A 
ATOM     13  C   UNL     1       4.421   7.819   0.671  1.00  0.00     0.010 A 
ATOM     14  C   UNL     1       3.318   7.393  -0.095  1.00  0.00    -0.009 A 
ATOM     15  C   UNL     1       3.583   6.697  -1.305  1.00  0.00    -0.002 A 
ATOM     16  C   UNL     1       4.921   6.439  -1.723  1.00  0.00    -0.002 A 
ENDROOT
BRANCH   1  17
ATOM     17  C   UNL     1       1.614   8.349   1.527  1.00  0.00    -0.018 A 
ATOM     18  C   UNL     1       0.946   9.717   3.906  1.00  0.00     0.119 A 
ATOM     19  C   UNL     1       0.898  10.368   2.671  1.00  0.00     0.047 A 
ATOM     20  C   UNL     1       1.339   8.380   3.951  1.00  0.00     0.047 A 
ATOM     21  C   UNL     1       1.227   9.695   1.492  1.00  0.00     0.012 A 
ATOM     22  C   UNL     1       1.669   7.703   2.770  1.00  0.00     0.012 A 
BRANCH  18  23
ATOM     23  O   UNL     1       0.608  10.500   4.973  1.00  0.00    -0.490 OA
BRANCH  23  24
ATOM     24  C   UNL     1       1.626  11.250   5.634  1.00  0.00     0.257 C 
BRANCH  24  25
ATOM     25  C   UNL     1       1.359  12.720   5.485  1.00  0.00     0.006 C 
ATOM     26  C   UNL     1       2.018  13.533   4.647  1.00  0.00     0.007 C 
ENDBRANCH  24  25
ENDBRANCH  23  24
ENDBRANCH  18  23
ENDBRANCH   1  17
BRANCH   8  27
ATOM     27  C   UNL     1       6.888   4.779  -4.553  1.00  0.00    -0.018 A 
ATOM     28  C   UNL     1       7.206   5.480  -5.725  1.00  0.00     0.012 A 
ATOM     29  C   UNL     1       6.908   3.378  -4.585  1.00  0.00     0.012 A 
ATOM     30  C   UNL     1       7.545   4.800  -6.902  1.00  0.00     0.047 A 
ATOM     31  C   UNL     1       7.246   2.702  -5.760  1.00  0.00     0.047 A 
ATOM     32  C   UNL     1       7.568   3.406  -6.922  1.00  0.00     0.119 A 
BRANCH  32  33
ATOM     33  O   UNL     1       7.881   2.620  -7.997  1.00  0.00    -0.490 OA
BRANCH  33  34
ATOM     34  C   UNL     1       7.886   1.210  -7.790  1.00  0.00     0.257 C 
BRANCH  34  35
ATOM     35  C   UNL     1       9.277   0.722  -8.066  1.00  0.00     0.006 C 
ATOM     36  C   UNL     1       9.891  -0.261  -7.393  1.00  0.00     0.007 C 
ENDBRANCH  34  35
ENDBRANCH  33  34
ENDBRANCH  32  33
ENDBRANCH   8  27
TORSDOF 8
ENDMDL
MODEL 12
REMARK VINA RESULT:    -4.841      1.403     11.308
REMARK INTER + INTRA:          -9.053
REMARK INTER:                  -7.210
REMARK INTRA:                  -1.843
REMARK UNBOUND:                -1.948
REMARK SMILES C=CCOc1ccc(-c2ccc3ccc4c(-c5ccc(OCC=C)cc5)ccc5ccc2c3c54)cc1
REMARK SMILES IDX 9 1 10 2 11 3 12 4 13 5 14 6 15 7 16 8 27 9 28 10 29 11
REMARK SMILES IDX 30 12 31 13 32 14 33 15 34 16 8 17 5 18 6 19 36 20 7 21
REMARK SMILES IDX 35 22 4 23 3 24 2 25 1 26 17 27 18 28 26 29 19 30 25 31
REMARK SMILES IDX 20 32 21 33 22 34 23 35 24 36
REMARK H PARENT
REMARK Flexibility Score: inf
ROOT
ATOM      1  C   UNL     1       6.712   5.658  -3.047  1.00  0.00    -0.010 A 
ATOM      2  C   UNL     1       7.460   6.837  -2.892  1.00  0.00     0.010 A 
ATOM      3  C   UNL     1       6.935   7.935  -2.216  1.00  0.00     0.009 A 
ATOM      4  C   UNL     1       5.647   7.884  -1.675  1.00  0.00    -0.017 A 
ATOM      5  C   UNL     1       5.123   8.987  -0.999  1.00  0.00     0.009 A 
ATOM      6  C   UNL     1       3.839   8.944  -0.457  1.00  0.00     0.010 A 
ATOM      7  C   UNL     1       3.025   7.798  -0.567  1.00  0.00    -0.009 A 
ATOM      8  C   UNL     1       1.712   7.727  -0.021  1.00  0.00    -0.010 A 
ATOM      9  C   UNL     1       0.964   6.550  -0.178  1.00  0.00     0.010 A 
ATOM     10  C   UNL     1       1.488   5.453  -0.856  1.00  0.00     0.009 A 
ATOM     11  C   UNL     1       2.776   5.503  -1.397  1.00  0.00    -0.017 A 
ATOM     12  C   UNL     1       3.300   4.401  -2.076  1.00  0.00     0.009 A 
ATOM     13  C   UNL     1       4.584   4.443  -2.619  1.00  0.00     0.010 A 
ATOM     14  C   UNL     1       5.398   5.588  -2.504  1.00  0.00    -0.009 A 
ATOM     15  C   UNL     1       4.868   6.711  -1.814  1.00  0.00    -0.002 A 
ATOM     16  C   UNL     1       3.556   6.675  -1.258  1.00  0.00    -0.002 A 
ENDROOT
BRANCH   1  17
ATOM     17  C   UNL     1       7.331   4.540  -3.775  1.00  0.00    -0.018 A 
ATOM     18  C   UNL     1       8.528   2.404  -5.183  1.00  0.00     0.119 A 
ATOM     19  C   UNL     1       8.598   2.468  -3.789  1.00  0.00     0.047 A 
ATOM     20  C   UNL     1       7.865   3.417  -5.875  1.00  0.00     0.047 A 
ATOM     21  C   UNL     1       8.007   3.523  -3.090  1.00  0.00     0.012 A 
ATOM     22  C   UNL     1       7.271   4.475  -5.175  1.00  0.00     0.012 A 
BRANCH  18  23
ATOM     23  O   UNL     1       9.158   1.323  -5.732  1.00  0.00    -0.490 OA
BRANCH  23  24
ATOM     24  C   UNL     1      10.172   0.655  -4.982  1.00  0.00     0.257 C 
BRANCH  24  25
ATOM     25  C   UNL     1      11.518   0.914  -5.594  1.00  0.00     0.006 C 
ATOM     26  C   UNL     1      11.718   1.576  -6.742  1.00  0.00     0.007 C 
ENDBRANCH  24  25
ENDBRANCH  23  24
ENDBRANCH  18  23
ENDBRANCH   1  17
BRANCH   8  27
ATOM     27  C   UNL     1       1.097   8.845   0.710  1.00  0.00    -0.018 A 
ATOM     28  C   UNL     1       1.350   9.035   2.077  1.00  0.00     0.012 A 
ATOM     29  C   UNL     1       0.240   9.743   0.059  1.00  0.00     0.012 A 
ATOM     30  C   UNL     1       0.768  10.099   2.777  1.00  0.00     0.047 A 
ATOM     31  C   UNL     1      -0.339  10.804   0.759  1.00  0.00     0.047 A 
ATOM     32  C   UNL     1      -0.078  10.990   2.118  1.00  0.00     0.119 A 
BRANCH  32  33
ATOM     33  O   UNL     1      -0.709  12.067   2.677  1.00  0.00    -0.490 OA
BRANCH  33  34
ATOM     34  C   UNL     1      -0.377  13.354   2.160  1.00  0.00     0.257 C 
BRANCH  34  35
ATOM     35  C   UNL     1       0.841  13.830   2.894  1.00  0.00     0.006 C 
ATOM     36  C   UNL     1       0.949  13.911   4.227  1.00  0.00     0.007 C 
ENDBRANCH  34  35
ENDBRANCH  33  34
ENDBRANCH  32  33
ENDBRANCH   8  27
TORSDOF 8
ENDMDL
MODEL 13
REMARK VINA RESULT:    -4.808      1.108      1.502
REMARK INTER + INTRA:          -9.005
REMARK INTER:                  -7.228
REMARK INTRA:                  -1.777
REMARK UNBOUND:                -1.948
REMARK SMILES C=CCOc1ccc(-c2ccc3ccc4c(-c5ccc(OCC=C)cc5)ccc5ccc2c3c54)cc1
REMARK SMILES IDX 9 1 10 2 11 3 12 4 13 5 14 6 15 7 16 8 27 9 28 10 29 11
REMARK SMILES IDX 30 12 31 13 32 14 33 15 34 16 8 17 5 18 6 19 36 20 7 21
REMARK SMILES IDX 35 22 4 23 3 24 2 25 1 26 17 27 18 28 26 29 19 30 25 31
REMARK SMILES IDX 20 32 21 33 22 34 23 35 24 36
REMARK H PARENT
REMARK Flexibility Score: inf
ROOT
ATOM      1  C   UNL     1       1.696   7.553  -0.188  1.00  0.00    -0.010 A 
ATOM      2  C   UNL     1       1.518   6.357   0.525  1.00  0.00     0.010 A 
ATOM      3  C   UNL     1       2.407   5.296   0.380  1.00  0.00     0.009 A 
ATOM      4  C   UNL     1       3.501   5.403  -0.482  1.00  0.00    -0.017 A 
ATOM      5  C   UNL     1       4.391   4.337  -0.627  1.00  0.00     0.009 A 
ATOM      6  C   UNL     1       5.485   4.435  -1.486  1.00  0.00     0.010 A 
ATOM      7  C   UNL     1       5.737   5.603  -2.235  1.00  0.00    -0.009 A 
ATOM      8  C   UNL     1       6.847   5.731  -3.117  1.00  0.00    -0.010 A 
ATOM      9  C   UNL     1       7.025   6.926  -3.831  1.00  0.00     0.010 A 
ATOM     10  C   UNL     1       6.134   7.986  -3.688  1.00  0.00     0.009 A 
ATOM     11  C   UNL     1       5.039   7.880  -2.825  1.00  0.00    -0.017 A 
ATOM     12  C   UNL     1       4.148   8.944  -2.682  1.00  0.00     0.009 A 
ATOM     13  C   UNL     1       3.053   8.846  -1.824  1.00  0.00     0.010 A 
ATOM     14  C   UNL     1       2.805   7.681  -1.072  1.00  0.00    -0.009 A 
ATOM     15  C   UNL     1       3.710   6.595  -1.215  1.00  0.00    -0.002 A 
ATOM     16  C   UNL     1       4.831   6.688  -2.092  1.00  0.00    -0.002 A 
ENDROOT
BRANCH   1  17
ATOM     17  C   UNL     1       0.715   8.630   0.014  1.00  0.00    -0.018 A 
ATOM     18  C   UNL     1      -1.181  10.687   0.403  1.00  0.00     0.119 A 
ATOM     19  C   UNL     1      -0.101  10.538   1.277  1.00  0.00     0.047 A 
ATOM     20  C   UNL     1      -1.318   9.798  -0.662  1.00  0.00     0.047 A 
ATOM     21  C   UNL     1       0.839   9.522   1.087  1.00  0.00     0.012 A 
ATOM     22  C   UNL     1      -0.376   8.779  -0.854  1.00  0.00     0.012 A 
BRANCH  18  23
ATOM     23  O   UNL     1      -2.025  11.715   0.716  1.00  0.00    -0.490 OA
BRANCH  23  24
ATOM     24  C   UNL     1      -2.709  12.397  -0.335  1.00  0.00     0.257 C 
BRANCH  24  25
ATOM     25  C   UNL     1      -2.073  13.735  -0.578  1.00  0.00     0.006 C 
ATOM     26  C   UNL     1      -0.985  14.188   0.060  1.00  0.00     0.007 C 
ENDBRANCH  24  25
ENDBRANCH  23  24
ENDBRANCH  18  23
ENDBRANCH   1  17
BRANCH   8  27
ATOM     27  C   UNL     1       7.830   4.653  -3.315  1.00  0.00    -0.018 A 
ATOM     28  C   UNL     1       9.035   4.640  -2.597  1.00  0.00     0.012 A 
ATOM     29  C   UNL     1       7.586   3.620  -4.229  1.00  0.00     0.012 A 
ATOM     30  C   UNL     1       9.972   3.616  -2.780  1.00  0.00     0.047 A 
ATOM     31  C   UNL     1       8.522   2.599  -4.410  1.00  0.00     0.047 A 
ATOM     32  C   UNL     1       9.717   2.589  -3.688  1.00  0.00     0.119 A 
BRANCH  32  33
ATOM     33  O   UNL     1      10.540   1.532  -3.962  1.00  0.00    -0.490 OA
BRANCH  33  34
ATOM     34  C   UNL     1      10.755   1.215  -5.335  1.00  0.00     0.257 C 
BRANCH  34  35
ATOM     35  C   UNL     1      11.768   2.184  -5.865  1.00  0.00     0.006 C 
ATOM     36  C   UNL     1      11.764   2.694  -7.105  1.00  0.00     0.007 C 
ENDBRANCH  34  35
ENDBRANCH  33  34
ENDBRANCH  32  33
ENDBRANCH   8  27
TORSDOF 8
ENDMDL
MODEL 14
REMARK VINA RESULT:    -4.588      2.413     11.137
REMARK INTER + INTRA:          -8.681
REMARK INTER:                  -7.025
REMARK INTRA:                  -1.656
REMARK UNBOUND:                -1.948
REMARK SMILES C=CCOc1ccc(-c2ccc3ccc4c(-c5ccc(OCC=C)cc5)ccc5ccc2c3c54)cc1
REMARK SMILES IDX 9 1 10 2 11 3 12 4 13 5 14 6 15 7 16 8 27 9 28 10 29 11
REMARK SMILES IDX 30 12 31 13 32 14 33 15 34 16 8 17 5 18 6 19 36 20 7 21
REMARK SMILES IDX 35 22 4 23 3 24 2 25 1 26 17 27 18 28 26 29 19 30 25 31
REMARK SMILES IDX 20 32 21 33 22 34 23 35 24 36
REMARK H PARENT
REMARK Flexibility Score: inf
ROOT
ATOM      1  C   UNL     1       7.571   5.841  -3.646  1.00  0.00    -0.010 A 
ATOM      2  C   UNL     1       8.495   6.497  -2.816  1.00  0.00     0.010 A 
ATOM      3  C   UNL     1       8.083   7.142  -1.654  1.00  0.00     0.009 A 
ATOM      4  C   UNL     1       6.734   7.150  -1.288  1.00  0.00    -0.017 A 
ATOM      5  C   UNL     1       6.323   7.799  -0.124  1.00  0.00     0.009 A 
ATOM      6  C   UNL     1       4.979   7.812   0.248  1.00  0.00     0.010 A 
ATOM      7  C   UNL     1       3.990   7.175  -0.529  1.00  0.00    -0.009 A 
ATOM      8  C   UNL     1       2.612   7.170  -0.172  1.00  0.00    -0.010 A 
ATOM      9  C   UNL     1       1.688   6.516  -1.002  1.00  0.00     0.010 A 
ATOM     10  C   UNL     1       2.099   5.872  -2.165  1.00  0.00     0.009 A 
ATOM     11  C   UNL     1       3.449   5.865  -2.531  1.00  0.00    -0.017 A 
ATOM     12  C   UNL     1       3.860   5.218  -3.698  1.00  0.00     0.009 A 
ATOM     13  C   UNL     1       5.204   5.205  -4.070  1.00  0.00     0.010 A 
ATOM     14  C   UNL     1       6.193   5.838  -3.290  1.00  0.00    -0.009 A 
ATOM     15  C   UNL     1       5.778   6.498  -2.102  1.00  0.00    -0.002 A 
ATOM     16  C   UNL     1       4.405   6.515  -1.717  1.00  0.00    -0.002 A 
ENDROOT
BRANCH   1  17
ATOM     17  C   UNL     1       8.080   5.182  -4.859  1.00  0.00    -0.018 A 
ATOM     18  C   UNL     1       9.048   3.903  -7.183  1.00  0.00     0.119 A 
ATOM     19  C   UNL     1       8.369   5.121  -7.269  1.00  0.00     0.047 A 
ATOM     20  C   UNL     1       9.234   3.319  -5.931  1.00  0.00     0.047 A 
ATOM     21  C   UNL     1       7.889   5.757  -6.122  1.00  0.00     0.012 A 
ATOM     22  C   UNL     1       8.754   3.955  -4.779  1.00  0.00     0.012 A 
BRANCH  18  23
ATOM     23  O   UNL     1       9.451   3.393  -8.384  1.00  0.00    -0.490 OA
BRANCH  23  24
ATOM     24  C   UNL     1       8.821   2.214  -8.885  1.00  0.00     0.257 C 
BRANCH  24  25
ATOM     25  C   UNL     1       9.845   1.136  -9.097  1.00  0.00     0.006 C 
ATOM     26  C   UNL     1      10.617   0.619  -8.130  1.00  0.00     0.007 C 
ENDBRANCH  24  25
ENDBRANCH  23  24
ENDBRANCH  18  23
ENDBRANCH   1  17
BRANCH   8  27
ATOM     27  C   UNL     1       2.106   7.826   1.044  1.00  0.00    -0.018 A 
ATOM     28  C   UNL     1       2.126   7.162   2.279  1.00  0.00     0.012 A 
ATOM     29  C   UNL     1       1.588   9.127   0.994  1.00  0.00     0.012 A 
ATOM     30  C   UNL     1       1.648   7.783   3.440  1.00  0.00     0.047 A 
ATOM     31  C   UNL     1       1.111   9.745   2.153  1.00  0.00     0.047 A 
ATOM     32  C   UNL     1       1.140   9.080   3.380  1.00  0.00     0.119 A 
BRANCH  32  33
ATOM     33  O   UNL     1       0.645   9.802   4.431  1.00  0.00    -0.490 OA
BRANCH  33  34
ATOM     34  C   UNL     1      -0.159  10.936   4.118  1.00  0.00     0.257 C 
BRANCH  34  35
ATOM     35  C   UNL     1      -1.568  10.609   4.512  1.00  0.00     0.006 C 
ATOM     36  C   UNL     1      -2.659  10.949   3.810  1.00  0.00     0.007 C 
ENDBRANCH  34  35
ENDBRANCH  33  34
ENDBRANCH  32  33
ENDBRANCH   8  27
TORSDOF 8
ENDMDL
MODEL 15
REMARK VINA RESULT:    -4.517      1.792     11.369
REMARK INTER + INTRA:          -8.577
REMARK INTER:                  -6.800
REMARK INTRA:                  -1.777
REMARK UNBOUND:                -1.948
REMARK SMILES C=CCOc1ccc(-c2ccc3ccc4c(-c5ccc(OCC=C)cc5)ccc5ccc2c3c54)cc1
REMARK SMILES IDX 9 1 10 2 11 3 12 4 13 5 14 6 15 7 16 8 27 9 28 10 29 11
REMARK SMILES IDX 30 12 31 13 32 14 33 15 34 16 8 17 5 18 6 19 36 20 7 21
REMARK SMILES IDX 35 22 4 23 3 24 2 25 1 26 17 27 18 28 26 29 19 30 25 31
REMARK SMILES IDX 20 32 21 33 22 34 23 35 24 36
REMARK H PARENT
REMARK Flexibility Score: inf
ROOT
ATOM      1  C   UNL     1       7.177   5.525  -5.803  1.00  0.00    -0.010 A 
ATOM      2  C   UNL     1       6.823   6.696  -6.492  1.00  0.00     0.010 A 
ATOM      3  C   UNL     1       5.879   7.576  -5.972  1.00  0.00     0.009 A 
ATOM      4  C   UNL     1       5.262   7.310  -4.747  1.00  0.00    -0.017 A 
ATOM      5  C   UNL     1       4.314   8.194  -4.229  1.00  0.00     0.009 A 
ATOM      6  C   UNL     1       3.693   7.936  -3.007  1.00  0.00     0.010 A 
ATOM      7  C   UNL     1       3.995   6.784  -2.252  1.00  0.00    -0.009 A 
ATOM      8  C   UNL     1       3.378   6.497  -1.001  1.00  0.00    -0.010 A 
ATOM      9  C   UNL     1       3.730   5.326  -0.313  1.00  0.00     0.010 A 
ATOM     10  C   UNL     1       4.673   4.444  -0.833  1.00  0.00     0.009 A 
ATOM     11  C   UNL     1       5.290   4.710  -2.059  1.00  0.00    -0.017 A 
ATOM     12  C   UNL     1       6.236   3.825  -2.579  1.00  0.00     0.009 A 
ATOM     13  C   UNL     1       6.857   4.083  -3.801  1.00  0.00     0.010 A 
ATOM     14  C   UNL     1       6.559   5.237  -4.553  1.00  0.00    -0.009 A 
ATOM     15  C   UNL     1       5.596   6.139  -4.027  1.00  0.00    -0.002 A 
ATOM     16  C   UNL     1       4.957   5.881  -2.779  1.00  0.00    -0.002 A 
ENDROOT
BRANCH   1  17
ATOM     17  C   UNL     1       8.181   4.641  -6.414  1.00  0.00    -0.018 A 
ATOM     18  C   UNL     1      10.103   2.947  -7.603  1.00  0.00     0.119 A 
ATOM     19  C   UNL     1      10.491   3.953  -6.715  1.00  0.00     0.047 A 
ATOM     20  C   UNL     1       8.750   2.795  -7.905  1.00  0.00     0.047 A 
ATOM     21  C   UNL     1       9.543   4.792  -6.125  1.00  0.00     0.012 A 
ATOM     22  C   UNL     1       7.798   3.635  -7.313  1.00  0.00     0.012 A 
BRANCH  18  23
ATOM     23  O   UNL     1      11.136   2.211  -8.111  1.00  0.00    -0.490 OA
BRANCH  23  24
ATOM     24  C   UNL     1      10.881   0.886  -8.577  1.00  0.00     0.257 C 
BRANCH  24  25
ATOM     25  C   UNL     1      11.552  -0.112  -7.677  1.00  0.00     0.006 C 
ATOM     26  C   UNL     1      11.535  -0.061  -6.338  1.00  0.00     0.007 C 
ENDBRANCH  24  25
ENDBRANCH  23  24
ENDBRANCH  18  23
ENDBRANCH   1  17
BRANCH   8  27
ATOM     27  C   UNL     1       2.377   7.386  -0.389  1.00  0.00    -0.018 A 
ATOM     28  C   UNL     1       2.769   8.440   0.449  1.00  0.00     0.012 A 
ATOM     29  C   UNL     1       1.009   7.194  -0.626  1.00  0.00     0.012 A 
ATOM     30  C   UNL     1       1.820   9.289   1.032  1.00  0.00     0.047 A 
ATOM     31  C   UNL     1       0.064   8.042  -0.044  1.00  0.00     0.047 A 
ATOM     32  C   UNL     1       0.462   9.093   0.785  1.00  0.00     0.119 A 
BRANCH  32  33
ATOM     33  O   UNL     1      -0.566   9.845   1.285  1.00  0.00    -0.490 OA
BRANCH  33  34
ATOM     34  C   UNL     1      -1.149  10.810   0.414  1.00  0.00     0.257 C 
BRANCH  34  35
ATOM     35  C   UNL     1      -0.804  12.166   0.953  1.00  0.00     0.006 C 
ATOM     36  C   UNL     1      -0.231  12.394   2.143  1.00  0.00     0.007 C 
ENDBRANCH  34  35
ENDBRANCH  33  34
ENDBRANCH  32  33
ENDBRANCH   8  27
TORSDOF 8
ENDMDL
MODEL 16
REMARK VINA RESULT:    -4.516      3.360      4.504
REMARK INTER + INTRA:          -8.576
REMARK INTER:                  -6.656
REMARK INTRA:                  -1.920
REMARK UNBOUND:                -1.948
REMARK SMILES C=CCOc1ccc(-c2ccc3ccc4c(-c5ccc(OCC=C)cc5)ccc5ccc2c3c54)cc1
REMARK SMILES IDX 9 1 10 2 11 3 12 4 13 5 14 6 15 7 16 8 27 9 28 10 29 11
REMARK SMILES IDX 30 12 31 13 32 14 33 15 34 16 8 17 5 18 6 19 36 20 7 21
REMARK SMILES IDX 35 22 4 23 3 24 2 25 1 26 17 27 18 28 26 29 19 30 25 31
REMARK SMILES IDX 20 32 21 33 22 34 23 35 24 36
REMARK H PARENT
REMARK Flexibility Score: inf
ROOT
ATOM      1  C   UNL     1       1.772   7.319   0.369  1.00  0.00    -0.010 A 
ATOM      2  C   UNL     1       0.957   7.860  -0.638  1.00  0.00     0.010 A 
ATOM      3  C   UNL     1       1.417   7.981  -1.946  1.00  0.00     0.009 A 
ATOM      4  C   UNL     1       2.707   7.562  -2.283  1.00  0.00    -0.017 A 
ATOM      5  C   UNL     1       3.167   7.685  -3.595  1.00  0.00     0.009 A 
ATOM      6  C   UNL     1       4.452   7.270  -3.941  1.00  0.00     0.010 A 
ATOM      7  C   UNL     1       5.332   6.713  -2.990  1.00  0.00    -0.009 A 
ATOM      8  C   UNL     1       6.648   6.279  -3.315  1.00  0.00    -0.010 A 
ATOM      9  C   UNL     1       7.464   5.740  -2.309  1.00  0.00     0.010 A 
ATOM     10  C   UNL     1       7.004   5.621  -1.000  1.00  0.00     0.009 A 
ATOM     11  C   UNL     1       5.714   6.040  -0.662  1.00  0.00    -0.017 A 
ATOM     12  C   UNL     1       5.255   5.920   0.651  1.00  0.00     0.009 A 
ATOM     13  C   UNL     1       3.969   6.335   0.997  1.00  0.00     0.010 A 
ATOM     14  C   UNL     1       3.089   6.887   0.044  1.00  0.00    -0.009 A 
ATOM     15  C   UNL     1       3.554   7.012  -1.293  1.00  0.00    -0.002 A 
ATOM     16  C   UNL     1       4.867   6.589  -1.653  1.00  0.00    -0.002 A 
ENDROOT
BRANCH   1  17
ATOM     17  C   UNL     1       1.218   7.225   1.729  1.00  0.00    -0.018 A 
ATOM     18  C   UNL     1       0.163   7.029   4.341  1.00  0.00     0.119 A 
ATOM     19  C   UNL     1       0.896   8.152   3.950  1.00  0.00     0.047 A 
ATOM     20  C   UNL     1      -0.033   5.996   3.425  1.00  0.00     0.047 A 
ATOM     21  C   UNL     1       1.419   8.253   2.659  1.00  0.00     0.012 A 
ATOM     22  C   UNL     1       0.490   6.095   2.130  1.00  0.00     0.012 A 
BRANCH  18  23
ATOM     23  O   UNL     1      -0.278   7.063   5.634  1.00  0.00    -0.490 OA
BRANCH  23  24
ATOM     24  C   UNL     1      -1.677   6.954   5.894  1.00  0.00     0.257 C 
BRANCH  24  25
ATOM     25  C   UNL     1      -2.308   8.317   5.885  1.00  0.00     0.006 C 
ATOM     26  C   UNL     1      -2.964   8.845   4.843  1.00  0.00     0.007 C 
ENDBRANCH  24  25
ENDBRANCH  23  24
ENDBRANCH  18  23
ENDBRANCH   1  17
BRANCH   8  27
ATOM     27  C   UNL     1       7.198   6.371  -4.677  1.00  0.00    -0.018 A 
ATOM     28  C   UNL     1       7.047   5.312  -5.585  1.00  0.00     0.012 A 
ATOM     29  C   UNL     1       7.890   7.515  -5.095  1.00  0.00     0.012 A 
ATOM     30  C   UNL     1       7.566   5.395  -6.882  1.00  0.00     0.047 A 
ATOM     31  C   UNL     1       8.408   7.596  -6.390  1.00  0.00     0.047 A 
ATOM     32  C   UNL     1       8.248   6.541  -7.290  1.00  0.00     0.119 A 
BRANCH  32  33
ATOM     33  O   UNL     1       8.802   6.754  -8.522  1.00  0.00    -0.490 OA
BRANCH  33  34
ATOM     34  C   UNL     1       9.530   5.675  -9.104  1.00  0.00     0.257 C 
BRANCH  34  35
ATOM     35  C   UNL     1      10.891   5.664  -8.476  1.00  0.00     0.006 C 
ATOM     36  C   UNL     1      11.446   4.605  -7.869  1.00  0.00     0.007 C 
ENDBRANCH  34  35
ENDBRANCH  33  34
ENDBRANCH  32  33
ENDBRANCH   8  27
TORSDOF 8
ENDMDL
MODEL 17
REMARK VINA RESULT:    -4.286      2.332     11.178
REMARK INTER + INTRA:          -8.239
REMARK INTER:                  -6.631
REMARK INTRA:                  -1.608
REMARK UNBOUND:                -1.948
REMARK SMILES C=CCOc1ccc(-c2ccc3ccc4c(-c5ccc(OCC=C)cc5)ccc5ccc2c3c54)cc1
REMARK SMILES IDX 9 1 10 2 11 3 12 4 13 5 14 6 15 7 16 8 27 9 28 10 29 11
REMARK SMILES IDX 30 12 31 13 32 14 33 15 34 16 8 17 5 18 6 19 36 20 7 21
REMARK SMILES IDX 35 22 4 23 3 24 2 25 1 26 17 27 18 28 26 29 19 30 25 31
REMARK SMILES IDX 20 32 21 33 22 34 23 35 24 36
REMARK H PARENT
REMARK Flexibility Score: inf
ROOT
ATOM      1  C   UNL     1       6.819   5.508  -2.127  1.00  0.00    -0.010 A 
ATOM      2  C   UNL     1       6.933   6.338  -3.254  1.00  0.00     0.010 A 
ATOM      3  C   UNL     1       5.904   7.204  -3.614  1.00  0.00     0.009 A 
ATOM      4  C   UNL     1       4.732   7.264  -2.856  1.00  0.00    -0.017 A 
ATOM      5  C   UNL     1       3.701   8.131  -3.220  1.00  0.00     0.009 A 
ATOM      6  C   UNL     1       2.528   8.197  -2.469  1.00  0.00     0.010 A 
ATOM      7  C   UNL     1       2.336   7.399  -1.322  1.00  0.00    -0.009 A 
ATOM      8  C   UNL     1       1.150   7.447  -0.537  1.00  0.00    -0.010 A 
ATOM      9  C   UNL     1       1.035   6.616   0.588  1.00  0.00     0.010 A 
ATOM     10  C   UNL     1       2.063   5.749   0.947  1.00  0.00     0.009 A 
ATOM     11  C   UNL     1       3.236   5.688   0.189  1.00  0.00    -0.017 A 
ATOM     12  C   UNL     1       4.266   4.818   0.551  1.00  0.00     0.009 A 
ATOM     13  C   UNL     1       5.439   4.753  -0.200  1.00  0.00     0.010 A 
ATOM     14  C   UNL     1       5.632   5.554  -1.343  1.00  0.00    -0.009 A 
ATOM     15  C   UNL     1       4.585   6.440  -1.714  1.00  0.00    -0.002 A 
ATOM     16  C   UNL     1       3.383   6.512  -0.951  1.00  0.00    -0.002 A 
ENDROOT
BRANCH   1  17
ATOM     17  C   UNL     1       7.946   4.617  -1.809  1.00  0.00    -0.018 A 
ATOM     18  C   UNL     1      10.115   2.908  -1.215  1.00  0.00     0.119 A 
ATOM     19  C   UNL     1       9.910   4.081  -0.484  1.00  0.00     0.047 A 
ATOM     20  C   UNL     1       9.238   2.595  -2.253  1.00  0.00     0.047 A 
ATOM     21  C   UNL     1       8.838   4.928  -0.775  1.00  0.00     0.012 A 
ATOM     22  C   UNL     1       8.162   3.443  -2.546  1.00  0.00     0.012 A 
BRANCH  18  23
ATOM     23  O   UNL     1      11.206   2.183  -0.828  1.00  0.00    -0.490 OA
BRANCH  23  24
ATOM     24  C   UNL     1      11.196   0.766  -1.001  1.00  0.00     0.257 C 
BRANCH  24  25
ATOM     25  C   UNL     1      11.752   0.096   0.222  1.00  0.00     0.006 C 
ATOM     26  C   UNL     1      11.767   0.639   1.447  1.00  0.00     0.007 C 
ENDBRANCH  24  25
ENDBRANCH  23  24
ENDBRANCH  18  23
ENDBRANCH   1  17
BRANCH   8  27
ATOM     27  C   UNL     1       0.025   8.342  -0.854  1.00  0.00    -0.018 A 
ATOM     28  C   UNL     1      -0.177   9.525  -0.129  1.00  0.00     0.012 A 
ATOM     29  C   UNL     1      -0.871   8.028  -1.884  1.00  0.00     0.012 A 
ATOM     30  C   UNL     1      -1.244  10.381  -0.429  1.00  0.00     0.047 A 
ATOM     31  C   UNL     1      -1.936   8.883  -2.182  1.00  0.00     0.047 A 
ATOM     32  C   UNL     1      -2.127  10.062  -1.459  1.00  0.00     0.119 A 
BRANCH  32  33
ATOM     33  O   UNL     1      -3.205  10.805  -1.857  1.00  0.00    -0.490 OA
BRANCH  33  34
ATOM     34  C   UNL     1      -3.159  11.366  -3.166  1.00  0.00     0.257 C 
BRANCH  34  35
ATOM     35  C   UNL     1      -3.219  12.857  -3.017  1.00  0.00     0.006 C 
ATOM     36  C   UNL     1      -2.739  13.541  -1.969  1.00  0.00     0.007 C 
ENDBRANCH  34  35
ENDBRANCH  33  34
ENDBRANCH  32  33
ENDBRANCH   8  27
TORSDOF 8
ENDMDL
MODEL 18
REMARK VINA RESULT:    -4.247      3.744     10.342
REMARK INTER + INTRA:          -8.182
REMARK INTER:                  -6.462
REMARK INTRA:                  -1.720
REMARK UNBOUND:                -1.948
REMARK SMILES C=CCOc1ccc(-c2ccc3ccc4c(-c5ccc(OCC=C)cc5)ccc5ccc2c3c54)cc1
REMARK SMILES IDX 9 1 10 2 11 3 12 4 13 5 14 6 15 7 16 8 27 9 28 10 29 11
REMARK SMILES IDX 30 12 31 13 32 14 33 15 34 16 8 17 5 18 6 19 36 20 7 21
REMARK SMILES IDX 35 22 4 23 3 24 2 25 1 26 17 27 18 28 26 29 19 30 25 31
REMARK SMILES IDX 20 32 21 33 22 34 23 35 24 36
REMARK H PARENT
REMARK Flexibility Score: inf
ROOT
ATOM      1  C   UNL     1       8.160   7.764  -3.167  1.00  0.00    -0.010 A 
ATOM      2  C   UNL     1       8.648   8.223  -1.933  1.00  0.00     0.010 A 
ATOM      3  C   UNL     1       7.846   8.211  -0.796  1.00  0.00     0.009 A 
ATOM      4  C   UNL     1       6.533   7.738  -0.860  1.00  0.00    -0.017 A 
ATOM      5  C   UNL     1       5.730   7.728   0.281  1.00  0.00     0.009 A 
ATOM      6  C   UNL     1       4.418   7.258   0.226  1.00  0.00     0.010 A 
ATOM      7  C   UNL     1       3.854   6.777  -0.974  1.00  0.00    -0.009 A 
ATOM      8  C   UNL     1       2.519   6.290  -1.059  1.00  0.00    -0.010 A 
ATOM      9  C   UNL     1       2.030   5.832  -2.292  1.00  0.00     0.010 A 
ATOM     10  C   UNL     1       2.831   5.847  -3.431  1.00  0.00     0.009 A 
ATOM     11  C   UNL     1       4.146   6.320  -3.366  1.00  0.00    -0.017 A 
ATOM     12  C   UNL     1       4.947   6.332  -4.509  1.00  0.00     0.009 A 
ATOM     13  C   UNL     1       6.259   6.803  -4.453  1.00  0.00     0.010 A 
ATOM     14  C   UNL     1       6.824   7.278  -3.253  1.00  0.00    -0.009 A 
ATOM     15  C   UNL     1       6.010   7.268  -2.088  1.00  0.00    -0.002 A 
ATOM     16  C   UNL     1       4.668   6.789  -2.139  1.00  0.00    -0.002 A 
ENDROOT
BRANCH   1  17
ATOM     17  C   UNL     1       9.064   7.809  -4.327  1.00  0.00    -0.018 A 
ATOM     18  C   UNL     1      10.802   7.911  -6.550  1.00  0.00     0.119 A 
ATOM     19  C   UNL     1      11.006   6.981  -5.528  1.00  0.00     0.047 A 
ATOM     20  C   UNL     1       9.732   8.799  -6.454  1.00  0.00     0.047 A 
ATOM     21  C   UNL     1      10.147   6.927  -4.427  1.00  0.00     0.012 A 
ATOM     22  C   UNL     1       8.870   8.747  -5.351  1.00  0.00     0.012 A 
BRANCH  18  23
ATOM     23  O   UNL     1      11.723   7.856  -7.558  1.00  0.00    -0.490 OA
BRANCH  23  24
ATOM     24  C   UNL     1      11.290   7.535  -8.879  1.00  0.00     0.257 C 
BRANCH  24  25
ATOM     25  C   UNL     1      11.391   6.054  -9.106  1.00  0.00     0.006 C 
ATOM     26  C   UNL     1      10.429   5.170  -8.804  1.00  0.00     0.007 C 
ENDBRANCH  24  25
ENDBRANCH  23  24
ENDBRANCH  18  23
ENDBRANCH   1  17
BRANCH   8  27
ATOM     27  C   UNL     1       1.618   6.242   0.104  1.00  0.00    -0.018 A 
ATOM     28  C   UNL     1       1.600   5.125   0.952  1.00  0.00     0.012 A 
ATOM     29  C   UNL     1       0.754   7.309   0.385  1.00  0.00     0.012 A 
ATOM     30  C   UNL     1       0.746   5.076   2.060  1.00  0.00     0.047 A 
ATOM     31  C   UNL     1      -0.098   7.257   1.491  1.00  0.00     0.047 A 
ATOM     32  C   UNL     1      -0.106   6.145   2.335  1.00  0.00     0.119 A 
BRANCH  32  33
ATOM     33  O   UNL     1      -0.986   6.229   3.379  1.00  0.00    -0.490 OA
BRANCH  33  34
ATOM     34  C   UNL     1      -0.602   5.607   4.603  1.00  0.00     0.257 C 
BRANCH  34  35
ATOM     35  C   UNL     1      -0.456   6.690   5.629  1.00  0.00     0.006 C 
ATOM     36  C   UNL     1      -0.550   8.003   5.375  1.00  0.00     0.007 C 
ENDBRANCH  34  35
ENDBRANCH  33  34
ENDBRANCH  32  33
ENDBRANCH   8  27
TORSDOF 8
ENDMDL
MODEL 19
REMARK VINA RESULT:    -4.222      4.670      9.693
REMARK INTER + INTRA:          -8.145
REMARK INTER:                  -6.374
REMARK INTRA:                  -1.771
REMARK UNBOUND:                -1.948
REMARK SMILES C=CCOc1ccc(-c2ccc3ccc4c(-c5ccc(OCC=C)cc5)ccc5ccc2c3c54)cc1
REMARK SMILES IDX 9 1 10 2 11 3 12 4 13 5 14 6 15 7 16 8 27 9 28 10 29 11
REMARK SMILES IDX 30 12 31 13 32 14 33 15 34 16 8 17 5 18 6 19 36 20 7 21
REMARK SMILES IDX 35 22 4 23 3 24 2 25 1 26 17 27 18 28 26 29 19 30 25 31
REMARK SMILES IDX 20 32 21 33 22 34 23 35 24 36
REMARK H PARENT
REMARK Flexibility Score: inf
ROOT
ATOM      1  C   UNL     1       8.370   8.803  -3.158  1.00  0.00    -0.010 A 
ATOM      2  C   UNL     1       9.113   8.508  -2.003  1.00  0.00     0.010 A 
ATOM      3  C   UNL     1       8.500   7.972  -0.874  1.00  0.00     0.009 A 
ATOM      4  C   UNL     1       7.127   7.714  -0.869  1.00  0.00    -0.017 A 
ATOM      5  C   UNL     1       6.515   7.177   0.265  1.00  0.00     0.009 A 
ATOM      6  C   UNL     1       5.145   6.916   0.278  1.00  0.00     0.010 A 
ATOM      7  C   UNL     1       4.330   7.181  -0.842  1.00  0.00    -0.009 A 
ATOM      8  C   UNL     1       2.930   6.923  -0.856  1.00  0.00    -0.010 A 
ATOM      9  C   UNL     1       2.187   7.220  -2.009  1.00  0.00     0.010 A 
ATOM     10  C   UNL     1       2.799   7.759  -3.137  1.00  0.00     0.009 A 
ATOM     11  C   UNL     1       4.173   8.017  -3.143  1.00  0.00    -0.017 A 
ATOM     12  C   UNL     1       4.784   8.556  -4.275  1.00  0.00     0.009 A 
ATOM     13  C   UNL     1       6.154   8.817  -4.289  1.00  0.00     0.010 A 
ATOM     14  C   UNL     1       6.970   8.548  -3.172  1.00  0.00    -0.009 A 
ATOM     15  C   UNL     1       6.350   7.999  -2.017  1.00  0.00    -0.002 A 
ATOM     16  C   UNL     1       4.950   7.731  -1.996  1.00  0.00    -0.002 A 
ENDROOT
BRANCH   1  17
ATOM     17  C   UNL     1       9.085   9.371  -4.312  1.00  0.00    -0.018 A 
ATOM     18  C   UNL     1      10.468  10.467  -6.516  1.00  0.00     0.119 A 
ATOM     19  C   UNL     1      10.180   9.101  -6.463  1.00  0.00     0.047 A 
ATOM     20  C   UNL     1      10.072  11.285  -5.459  1.00  0.00     0.047 A 
ATOM     21  C   UNL     1       9.495   8.555  -5.374  1.00  0.00     0.012 A 
ATOM     22  C   UNL     1       9.385  10.740  -4.367  1.00  0.00     0.012 A 
BRANCH  18  23
ATOM     23  O   UNL     1      11.150  10.858  -7.634  1.00  0.00    -0.490 OA
BRANCH  23  24
ATOM     24  C   UNL     1      10.782  12.076  -8.281  1.00  0.00     0.257 C 
BRANCH  24  25
ATOM     25  C   UNL     1       9.545  11.866  -9.106  1.00  0.00     0.006 C 
ATOM     26  C   UNL     1       8.294  12.038  -8.659  1.00  0.00     0.007 C 
ENDBRANCH  24  25
ENDBRANCH  23  24
ENDBRANCH  18  23
ENDBRANCH   1  17
BRANCH   8  27
ATOM     27  C   UNL     1       2.218   6.352   0.298  1.00  0.00    -0.018 A 
ATOM     28  C   UNL     1       1.875   4.992   0.328  1.00  0.00     0.012 A 
ATOM     29  C   UNL     1       1.862   7.155   1.390  1.00  0.00     0.012 A 
ATOM     30  C   UNL     1       1.199   4.443   1.425  1.00  0.00     0.047 A 
ATOM     31  C   UNL     1       1.188   6.605   2.484  1.00  0.00     0.047 A 
ATOM     32  C   UNL     1       0.855   5.249   2.509  1.00  0.00     0.119 A 
BRANCH  32  33
ATOM     33  O   UNL     1       0.199   4.845   3.639  1.00  0.00    -0.490 OA
BRANCH  33  34
ATOM     34  C   UNL     1      -0.847   5.685   4.119  1.00  0.00     0.257 C 
BRANCH  34  35
ATOM     35  C   UNL     1      -2.115   5.247   3.450  1.00  0.00     0.006 C 
ATOM     36  C   UNL     1      -2.762   4.102   3.710  1.00  0.00     0.007 C 
ENDBRANCH  34  35
ENDBRANCH  33  34
ENDBRANCH  32  33
ENDBRANCH   8  27
TORSDOF 8
ENDMDL
MODEL 20
REMARK VINA RESULT:    -4.189      4.377      6.411
REMARK INTER + INTRA:          -8.095
REMARK INTER:                  -6.362
REMARK INTRA:                  -1.734
REMARK UNBOUND:                -1.948
REMARK SMILES C=CCOc1ccc(-c2ccc3ccc4c(-c5ccc(OCC=C)cc5)ccc5ccc2c3c54)cc1
REMARK SMILES IDX 9 1 10 2 11 3 12 4 13 5 14 6 15 7 16 8 27 9 28 10 29 11
REMARK SMILES IDX 30 12 31 13 32 14 33 15 34 16 8 17 5 18 6 19 36 20 7 21
REMARK SMILES IDX 35 22 4 23 3 24 2 25 1 26 17 27 18 28 26 29 19 30 25 31
REMARK SMILES IDX 20 32 21 33 22 34 23 35 24 36
REMARK H PARENT
REMARK Flexibility Score: inf
ROOT
ATOM      1  C   UNL     1       3.505   7.109  -0.734  1.00  0.00    -0.010 A 
ATOM      2  C   UNL     1       4.164   8.086   0.031  1.00  0.00     0.010 A 
ATOM      3  C   UNL     1       5.258   8.778  -0.480  1.00  0.00     0.009 A 
ATOM      4  C   UNL     1       5.724   8.513  -1.770  1.00  0.00    -0.017 A 
ATOM      5  C   UNL     1       6.823   9.207  -2.279  1.00  0.00     0.009 A 
ATOM      6  C   UNL     1       7.294   8.948  -3.566  1.00  0.00     0.010 A 
ATOM      7  C   UNL     1       6.687   7.986  -4.398  1.00  0.00    -0.009 A 
ATOM      8  C   UNL     1       7.145   7.704  -5.716  1.00  0.00    -0.010 A 
ATOM      9  C   UNL     1       6.488   6.727  -6.480  1.00  0.00     0.010 A 
ATOM     10  C   UNL     1       5.395   6.033  -5.969  1.00  0.00     0.009 A 
ATOM     11  C   UNL     1       4.928   6.298  -4.677  1.00  0.00    -0.017 A 
ATOM     12  C   UNL     1       3.831   5.602  -4.167  1.00  0.00     0.009 A 
ATOM     13  C   UNL     1       3.360   5.860  -2.880  1.00  0.00     0.010 A 
ATOM     14  C   UNL     1       3.965   6.826  -2.051  1.00  0.00    -0.009 A 
ATOM     15  C   UNL     1       5.082   7.535  -2.567  1.00  0.00    -0.002 A 
ATOM     16  C   UNL     1       5.570   7.276  -3.881  1.00  0.00    -0.002 A 
ENDROOT
BRANCH   1  17
ATOM     17  C   UNL     1       2.356   6.418  -0.128  1.00  0.00    -0.018 A 
ATOM     18  C   UNL     1       0.160   5.090   1.051  1.00  0.00     0.119 A 
ATOM     19  C   UNL     1      -0.028   6.255   0.303  1.00  0.00     0.047 A 
ATOM     20  C   UNL     1       1.452   4.594   1.217  1.00  0.00     0.047 A 
ATOM     21  C   UNL     1       1.056   6.914  -0.282  1.00  0.00     0.012 A 
ATOM     22  C   UNL     1       2.540   5.253   0.631  1.00  0.00     0.012 A 
BRANCH  18  23
ATOM     23  O   UNL     1      -0.987   4.560   1.571  1.00  0.00    -0.490 OA
BRANCH  23  24
ATOM     24  C   UNL     1      -1.497   5.078   2.799  1.00  0.00     0.257 C 
BRANCH  24  25
ATOM     25  C   UNL     1      -1.279   4.085   3.904  1.00  0.00     0.006 C 
ATOM     26  C   UNL     1      -2.236   3.307   4.428  1.00  0.00     0.007 C 
ENDBRANCH  24  25
ENDBRANCH  23  24
ENDBRANCH  18  23
ENDBRANCH   1  17
BRANCH   8  27
ATOM     27  C   UNL     1       8.292   8.400  -6.322  1.00  0.00    -0.018 A 
ATOM     28  C   UNL     1       9.605   7.978  -6.066  1.00  0.00     0.012 A 
ATOM     29  C   UNL     1       8.097   9.504  -7.163  1.00  0.00     0.012 A 
ATOM     30  C   UNL     1      10.698   8.636  -6.642  1.00  0.00     0.047 A 
ATOM     31  C   UNL     1       9.189  10.159  -7.737  1.00  0.00     0.047 A 
ATOM     32  C   UNL     1      10.493   9.730  -7.482  1.00  0.00     0.119 A 
BRANCH  32  33
ATOM     33  O   UNL     1      11.466  10.459  -8.109  1.00  0.00    -0.490 OA
BRANCH  33  34
ATOM     34  C   UNL     1      11.236  11.858  -8.254  1.00  0.00     0.257 C 
BRANCH  34  35
ATOM     35  C   UNL     1      11.738  12.526  -7.010  1.00  0.00     0.006 C 
ATOM     36  C   UNL     1      11.003  13.316  -6.214  1.00  0.00     0.007 C 
ENDBRANCH  34  35
ENDBRANCH  33  34
ENDBRANCH  32  33
ENDBRANCH   8  27
TORSDOF 8
ENDMDL
