@<TRIPOS>MOLECULE
UNL
   43    45     1     0     0
SMALL
bcc


@<TRIPOS>ATOM
      1 O1           4.7540     1.2710     4.8310 oh         1 UNL      -0.594300
      2 C1           3.8790     2.2280     4.2490 c3         1 UNL       0.170700
      3 C2           3.2020     1.6570     3.0330 ca         1 UNL      -0.124300
      4 C3           1.9840     0.9800     3.1500 ca         1 UNL      -0.120000
      5 C4           1.3710     0.4240     2.0220 ca         1 UNL      -0.115500
      6 C5           1.9620     0.5220     0.7520 cp         1 UNL      -0.040500
      7 C6           1.3140    -0.0650    -0.4330 cp         1 UNL      -0.050000
      8 C7           2.0070    -0.9550    -1.2680 ca         1 UNL      -0.060500
      9 C8           1.3880    -1.5100    -2.3940 ca         1 UNL      -0.135600
     10 C9           2.0940    -2.4550    -3.2920 c          1 UNL       0.651700
     11 O2           1.6240    -2.9810    -4.2840 o          1 UNL      -0.552000
     12 O3           3.3590    -2.6970    -2.9080 oh         1 UNL      -0.607100
     13 C10          0.0620    -1.1770    -2.6970 ca         1 UNL      -0.060500
     14 C11         -0.6630    -0.2910    -1.8870 cp         1 UNL      -0.050000
     15 C12         -2.0560     0.0630    -2.2060 cp         1 UNL      -0.040500
     16 C13         -2.4130     0.5280    -3.4820 ca         1 UNL      -0.115500
     17 C14         -3.7360     0.8640    -3.7860 ca         1 UNL      -0.120000
     18 C15         -4.7370     0.7520    -2.8160 ca         1 UNL      -0.124300
     19 C16         -6.1670     1.0810    -3.1490 c3         1 UNL       0.170700
     20 O4          -6.8610    -0.0800    -3.5830 oh         1 UNL      -0.594300
     21 C17         -4.3960     0.2770    -1.5450 ca         1 UNL      -0.120000
     22 C18         -3.0720    -0.0580    -1.2440 ca         1 UNL      -0.115500
     23 C19         -0.0170     0.2530    -0.7610 ca         1 UNL      -0.077000
     24 C20          3.1910     1.1920     0.6490 ca         1 UNL      -0.115500
     25 C21          3.8060     1.7500     1.7750 ca         1 UNL      -0.120000
     26 H1           4.6910     0.4530     4.3100 ho         1 UNL       0.402000
     27 H2           4.4600     3.1190     3.9890 h1         1 UNL       0.056450
     28 H3           3.1420     2.5280     5.0010 h1         1 UNL       0.056450
     29 H4           1.5030     0.8760     4.1210 ha         1 UNL       0.141500
     30 H5           0.4260    -0.1030     2.1460 ha         1 UNL       0.137250
     31 H6           3.0330    -1.2250    -1.0270 ha         1 UNL       0.161000
     32 H7           3.6920    -3.3280    -3.5800 ho         1 UNL       0.448000
     33 H8          -0.4140    -1.6250    -3.5690 ha         1 UNL       0.161000
     34 H9          -1.6540     0.6400    -4.2550 ha         1 UNL       0.137250
     35 H10         -3.9770     1.2160    -4.7870 ha         1 UNL       0.141500
     36 H11         -6.2190     1.8340    -3.9430 h1         1 UNL       0.056450
     37 H12         -6.6850     1.4930    -2.2760 h1         1 UNL       0.056450
     38 H13         -6.2200    -0.8100    -3.6310 ho         1 UNL       0.402000
     39 H14         -5.1620     0.1600    -0.7800 ha         1 UNL       0.141500
     40 H15         -2.8410    -0.4320    -0.2480 ha         1 UNL       0.137250
     41 H16         -0.5580     0.9640    -0.1360 ha         1 UNL       0.146000
     42 H17          3.6790     1.2940    -0.3180 ha         1 UNL       0.137250
     43 H18          4.7610     2.2590     1.6600 ha         1 UNL       0.141500
@<TRIPOS>BOND
     1     1     2 1   
     2     1    26 1   
     3     2     3 1   
     4     2    27 1   
     5     2    28 1   
     6     3     4 ar  
     7     3    25 ar  
     8     4     5 ar  
     9     4    29 1   
    10     5     6 ar  
    11     5    30 1   
    12     6     7 1   
    13     6    24 ar  
    14     7     8 ar  
    15     7    23 ar  
    16     8     9 ar  
    17     8    31 1   
    18     9    10 1   
    19     9    13 ar  
    20    10    11 2   
    21    10    12 1   
    22    12    32 1   
    23    13    14 ar  
    24    13    33 1   
    25    14    15 1   
    26    14    23 ar  
    27    15    16 ar  
    28    15    22 ar  
    29    16    17 ar  
    30    16    34 1   
    31    17    18 ar  
    32    17    35 1   
    33    18    19 1   
    34    18    21 ar  
    35    19    20 1   
    36    19    36 1   
    37    19    37 1   
    38    20    38 1   
    39    21    22 ar  
    40    21    39 1   
    41    22    40 1   
    42    23    41 1   
    43    24    25 ar  
    44    24    42 1   
    45    25    43 1   
@<TRIPOS>SUBSTRUCTURE
     1 UNL         1 TEMP              0 ****  ****    0 ROOT
