@<TRIPOS>MOLECULE
UNL
   43    45     1     0     0
SMALL
bcc


@<TRIPOS>ATOM
      1 O1          -4.9360     4.9500     3.4810 oh         1 UNL      -0.594300
      2 C1          -5.0660     4.4260     2.1670 c3         1 UNL       0.170700
      3 C2          -3.8350     3.6510     1.7800 ca         1 UNL      -0.124300
      4 C3          -2.7730     4.2830     1.1250 ca         1 UNL      -0.120750
      5 C4          -1.6170     3.5670     0.7950 ca         1 UNL      -0.115500
      6 C5          -1.4890     2.2060     1.1160 cp         1 UNL      -0.041500
      7 C6          -0.2710     1.4540     0.7670 cp         1 UNL      -0.050000
      8 C7           0.9990     1.9270     1.1280 ca         1 UNL      -0.060500
      9 C8           2.1550     1.2090     0.7980 ca         1 UNL      -0.135600
     10 C9           3.4660     1.7670     1.2100 c          1 UNL       0.651700
     11 O2           3.6400     2.8250     1.7850 o          1 UNL      -0.552000
     12 O3           4.4990     0.9710     0.8830 oh         1 UNL      -0.607100
     13 C10          2.0500     0.0020     0.0970 ca         1 UNL      -0.060500
     14 C11          0.7970    -0.5020    -0.2830 cp         1 UNL      -0.050000
     15 C12          0.6840    -1.7700    -1.0240 cp         1 UNL      -0.041500
     16 C13          1.2900    -2.9440    -0.5490 ca         1 UNL      -0.115500
     17 C14          1.1830    -4.1490    -1.2510 ca         1 UNL      -0.120750
     18 C15          0.4730    -4.2070    -2.4560 ca         1 UNL      -0.124300
     19 C16          0.3300    -5.5090    -3.1960 c3         1 UNL       0.170700
     20 O4          -0.8130    -6.2210    -2.7420 oh         1 UNL      -0.594300
     21 C17         -0.1450    -3.0470    -2.9330 ca         1 UNL      -0.120750
     22 C18         -0.0370    -1.8440    -2.2270 ca         1 UNL      -0.115500
     23 C19         -0.3480     0.2390     0.0620 ca         1 UNL      -0.077000
     24 C20         -2.5560     1.5870     1.7850 ca         1 UNL      -0.115500
     25 C21         -3.7130     2.2990     2.1180 ca         1 UNL      -0.120750
     26 H1          -4.0450     4.7280     3.8040 ho         1 UNL       0.402000
     27 H2          -5.2360     5.2580     1.4760 h1         1 UNL       0.056450
     28 H3          -5.9540     3.7870     2.1310 h1         1 UNL       0.056450
     29 H4          -2.8360     5.3380     0.8650 ha         1 UNL       0.141500
     30 H5          -0.8140     4.0850     0.2720 ha         1 UNL       0.138500
     31 H6           1.0920     2.8590     1.6850 ha         1 UNL       0.161500
     32 H7           5.2840     1.4590     1.2110 ho         1 UNL       0.448000
     33 H8           2.9510    -0.5470    -0.1710 ha         1 UNL       0.161500
     34 H9           1.8440    -2.9330     0.3880 ha         1 UNL       0.138500
     35 H10          1.6560    -5.0420    -0.8490 ha         1 UNL       0.141500
     36 H11          1.2140    -6.1390    -3.0490 h1         1 UNL       0.056450
     37 H12          0.2290    -5.3360    -4.2720 h1         1 UNL       0.056450
     38 H13         -1.2410    -5.6880    -2.0500 ho         1 UNL       0.402000
     39 H14         -0.7150    -3.0690    -3.8600 ha         1 UNL       0.141500
     40 H15         -0.5150    -0.9540    -2.6340 ha         1 UNL       0.138500
     41 H16         -1.3280    -0.1410    -0.2270 ha         1 UNL       0.145000
     42 H17         -2.4890     0.5380     2.0690 ha         1 UNL       0.138500
     43 H18         -4.5170     1.7910     2.6470 ha         1 UNL       0.141500
@<TRIPOS>BOND
     1     1     2 1   
     2     1    26 1   
     3     2     3 1   
     4     2    27 1   
     5     2    28 1   
     6     3     4 ar  
     7     3    25 ar  
     8     4     5 ar  
     9     4    29 1   
    10     5     6 ar  
    11     5    30 1   
    12     6     7 1   
    13     6    24 ar  
    14     7     8 ar  
    15     7    23 ar  
    16     8     9 ar  
    17     8    31 1   
    18     9    10 1   
    19     9    13 ar  
    20    10    11 2   
    21    10    12 1   
    22    12    32 1   
    23    13    14 ar  
    24    13    33 1   
    25    14    15 1   
    26    14    23 ar  
    27    15    16 ar  
    28    15    22 ar  
    29    16    17 ar  
    30    16    34 1   
    31    17    18 ar  
    32    17    35 1   
    33    18    19 1   
    34    18    21 ar  
    35    19    20 1   
    36    19    36 1   
    37    19    37 1   
    38    20    38 1   
    39    21    22 ar  
    40    21    39 1   
    41    22    40 1   
    42    23    41 1   
    43    24    25 ar  
    44    24    42 1   
    45    25    43 1   
@<TRIPOS>SUBSTRUCTURE
     1 UNL         1 TEMP              0 ****  ****    0 ROOT
