@<TRIPOS>MOLECULE
UNL
   43    45     1     0     0
SMALL
bcc


@<TRIPOS>ATOM
      1 O1           4.9580    -0.9790     5.1360 oh         1 UNL      -0.596800
      2 C1           4.1980     0.2170     5.0200 c3         1 UNL       0.173200
      3 C2           3.0620     0.0440     4.0470 ca         1 UNL      -0.103800
      4 C3           2.4040    -1.1830     3.9000 ca         1 UNL      -0.118750
      5 C4           1.3240    -1.3170     3.0210 ca         1 UNL      -0.117000
      6 C5           0.8620    -0.2260     2.2700 cp         1 UNL      -0.042500
      7 C6          -0.2730    -0.3670     1.3430 cp         1 UNL      -0.049000
      8 C7          -1.4970    -0.8990     1.7760 ca         1 UNL      -0.060500
      9 C8          -2.5750    -1.0280     0.8930 ca         1 UNL      -0.135600
     10 C9          -3.8810    -1.5830     1.3230 c          1 UNL       0.651700
     11 O2          -4.8730    -1.6920     0.6270 o          1 UNL      -0.553000
     12 O3          -3.8830    -1.9810     2.6070 oh         1 UNL      -0.607100
     13 C10         -2.4370    -0.6240    -0.4410 ca         1 UNL      -0.060500
     14 C11         -1.2290    -0.0890    -0.9110 cp         1 UNL      -0.049000
     15 C12         -1.0810     0.3330    -2.3150 cp         1 UNL      -0.042500
     16 C13         -0.0110    -0.1260    -3.1000 ca         1 UNL      -0.117000
     17 C14          0.1310     0.2720    -4.4340 ca         1 UNL      -0.118750
     18 C15         -0.8020     1.1350    -5.0190 ca         1 UNL      -0.103800
     19 C16         -0.6330     1.5900    -6.4430 c3         1 UNL       0.173200
     20 O4           0.1590     2.7690    -6.5020 oh         1 UNL      -0.596800
     21 C17         -1.8650     1.6090    -4.2430 ca         1 UNL      -0.118750
     22 C18         -2.0040     1.2080    -2.9100 ca         1 UNL      -0.117000
     23 C19         -0.1620     0.0310    -0.0020 ca         1 UNL      -0.078000
     24 C20          1.5160     1.0060     2.4320 ca         1 UNL      -0.117000
     25 C21          2.5970     1.1410     3.3110 ca         1 UNL      -0.118750
     26 H1           5.6850    -0.7880     5.7500 ho         1 UNL       0.403000
     27 H2           4.8740     1.0090     4.6810 h1         1 UNL       0.044950
     28 H3           3.8000     0.4800     6.0050 h1         1 UNL       0.044950
     29 H4           2.7390    -2.0500     4.4670 ha         1 UNL       0.142750
     30 H5           0.8520    -2.2920     2.9210 ha         1 UNL       0.137750
     31 H6          -1.6100    -1.2030     2.8160 ha         1 UNL       0.161500
     32 H7          -4.7920    -2.3210     2.7470 ho         1 UNL       0.447000
     33 H8          -3.2790    -0.7410    -1.1230 ha         1 UNL       0.161500
     34 H9           0.7220    -0.8120    -2.6790 ha         1 UNL       0.137750
     35 H10          0.9740    -0.0990    -5.0120 ha         1 UNL       0.142750
     36 H11         -0.1490     0.8140    -7.0450 h1         1 UNL       0.044950
     37 H12         -1.6050     1.7990    -6.9030 h1         1 UNL       0.044950
     38 H13          0.3990     3.0120    -5.5920 ho         1 UNL       0.403000
     39 H14         -2.5930     2.2960    -4.6690 ha         1 UNL       0.142750
     40 H15         -2.8390     1.5980    -2.3320 ha         1 UNL       0.137750
     41 H16          0.7850     0.4450    -0.3510 ha         1 UNL       0.144000
     42 H17          1.1790     1.8800     1.8790 ha         1 UNL       0.137750
     43 H18          3.0720     2.1140     3.4150 ha         1 UNL       0.142750
@<TRIPOS>BOND
     1     1     2 1   
     2     1    26 1   
     3     2     3 1   
     4     2    27 1   
     5     2    28 1   
     6     3     4 ar  
     7     3    25 ar  
     8     4     5 ar  
     9     4    29 1   
    10     5     6 ar  
    11     5    30 1   
    12     6     7 1   
    13     6    24 ar  
    14     7     8 ar  
    15     7    23 ar  
    16     8     9 ar  
    17     8    31 1   
    18     9    10 1   
    19     9    13 ar  
    20    10    11 2   
    21    10    12 1   
    22    12    32 1   
    23    13    14 ar  
    24    13    33 1   
    25    14    15 1   
    26    14    23 ar  
    27    15    16 ar  
    28    15    22 ar  
    29    16    17 ar  
    30    16    34 1   
    31    17    18 ar  
    32    17    35 1   
    33    18    19 1   
    34    18    21 ar  
    35    19    20 1   
    36    19    36 1   
    37    19    37 1   
    38    20    38 1   
    39    21    22 ar  
    40    21    39 1   
    41    22    40 1   
    42    23    41 1   
    43    24    25 ar  
    44    24    42 1   
    45    25    43 1   
@<TRIPOS>SUBSTRUCTURE
     1 UNL         1 TEMP              0 ****  ****    0 ROOT
