@<TRIPOS>MOLECULE
UNL
   43    45     1     0     0
SMALL
bcc


@<TRIPOS>ATOM
      1 O1          -5.6170    -4.3290    -2.2100 oh         1 UNL      -0.594300
      2 C1          -4.7580    -4.4380    -1.0830 c3         1 UNL       0.170700
      3 C2          -3.5330    -3.5830    -1.2650 ca         1 UNL      -0.124300
      4 C3          -2.3620    -4.1200    -1.8090 ca         1 UNL      -0.121000
      5 C4          -1.2360    -3.3140    -2.0050 ca         1 UNL      -0.115750
      6 C5          -1.2510    -1.9510    -1.6690 cp         1 UNL      -0.041500
      7 C6          -0.0640    -1.1030    -1.8750 cp         1 UNL      -0.050000
      8 C7           0.5830    -1.0550    -3.1180 ca         1 UNL      -0.060500
      9 C8           1.7090    -0.2450    -3.3130 ca         1 UNL      -0.135600
     10 C9           2.3450    -0.2430    -4.6520 c          1 UNL       0.651700
     11 O2           2.0000    -0.9150    -5.6050 o          1 UNL      -0.552000
     12 O3           3.3840     0.6060    -4.7360 oh         1 UNL      -0.607100
     13 C10          2.2030     0.5290    -2.2560 ca         1 UNL      -0.060500
     14 C11          1.5830     0.5060    -0.9970 cp         1 UNL      -0.050000
     15 C12          2.1020     1.3160     0.1180 cp         1 UNL      -0.041500
     16 C13          2.4020     0.7310     1.3590 ca         1 UNL      -0.115750
     17 C14          2.8950     1.4980     2.4190 ca         1 UNL      -0.121000
     18 C15          3.0900     2.8750     2.2680 ca         1 UNL      -0.124300
     19 C16          3.6510     3.6960     3.3970 c3         1 UNL       0.170700
     20 O4           5.0700     3.7320     3.3350 oh         1 UNL      -0.594300
     21 C17          2.8060     3.4660     1.0320 ca         1 UNL      -0.121000
     22 C18          2.3150     2.6960    -0.0260 ca         1 UNL      -0.115750
     23 C19          0.4530    -0.3160    -0.8290 ca         1 UNL      -0.077000
     24 C20         -2.4360    -1.4200    -1.1350 ca         1 UNL      -0.115750
     25 C21         -3.5650    -2.2230    -0.9390 ca         1 UNL      -0.121000
     26 H1          -5.1540    -3.8060    -2.8880 ho         1 UNL       0.402000
     27 H2          -5.3120    -4.1370    -0.1890 h1         1 UNL       0.056450
     28 H3          -4.4840    -5.4910    -0.9570 h1         1 UNL       0.056450
     29 H4          -2.3150    -5.1720    -2.0860 ha         1 UNL       0.141500
     30 H5          -0.3350    -3.7660    -2.4170 ha         1 UNL       0.138500
     31 H6           0.2000    -1.6440    -3.9500 ha         1 UNL       0.161000
     32 H7           3.6980     0.5020    -5.6590 ho         1 UNL       0.448000
     33 H8           3.0860     1.1470    -2.4060 ha         1 UNL       0.161000
     34 H9           2.2670    -0.3390     1.5060 ha         1 UNL       0.138500
     35 H10          3.1280     1.0110     3.3640 ha         1 UNL       0.141500
     36 H11          3.3550     3.2800     4.3660 h1         1 UNL       0.056450
     37 H12          3.2740     4.7230     3.3560 h1         1 UNL       0.056450
     38 H13          5.3490     3.1940     2.5740 ho         1 UNL       0.402000
     39 H14          2.9650     4.5330     0.8850 ha         1 UNL       0.141500
     40 H15          2.0890     3.1890    -0.9710 ha         1 UNL       0.138500
     41 H16         -0.0390    -0.3430     0.1440 ha         1 UNL       0.145000
     42 H17         -2.4960    -0.3640    -0.8790 ha         1 UNL       0.138500
     43 H18         -4.4710    -1.7770    -0.5350 ha         1 UNL       0.141500
@<TRIPOS>BOND
     1     1     2 1   
     2     1    26 1   
     3     2     3 1   
     4     2    27 1   
     5     2    28 1   
     6     3     4 ar  
     7     3    25 ar  
     8     4     5 ar  
     9     4    29 1   
    10     5     6 ar  
    11     5    30 1   
    12     6     7 1   
    13     6    24 ar  
    14     7     8 ar  
    15     7    23 ar  
    16     8     9 ar  
    17     8    31 1   
    18     9    10 1   
    19     9    13 ar  
    20    10    11 2   
    21    10    12 1   
    22    12    32 1   
    23    13    14 ar  
    24    13    33 1   
    25    14    15 1   
    26    14    23 ar  
    27    15    16 ar  
    28    15    22 ar  
    29    16    17 ar  
    30    16    34 1   
    31    17    18 ar  
    32    17    35 1   
    33    18    19 1   
    34    18    21 ar  
    35    19    20 1   
    36    19    36 1   
    37    19    37 1   
    38    20    38 1   
    39    21    22 ar  
    40    21    39 1   
    41    22    40 1   
    42    23    41 1   
    43    24    25 ar  
    44    24    42 1   
    45    25    43 1   
@<TRIPOS>SUBSTRUCTURE
     1 UNL         1 TEMP              0 ****  ****    0 ROOT
