@<TRIPOS>MOLECULE
UNL
   43    45     1     0     0
SMALL
bcc


@<TRIPOS>ATOM
      1 O1           2.0500     6.7210    -2.0750 oh         1 UNL      -0.594300
      2 C1           1.1090     6.4440    -1.0470 c3         1 UNL       0.170700
      3 C2           0.7510     4.9820    -1.0340 ca         1 UNL      -0.124300
      4 C3          -0.3330     4.5090    -1.7810 ca         1 UNL      -0.121000
      5 C4          -0.6450     3.1450    -1.7930 ca         1 UNL      -0.115750
      6 C5           0.1210     2.2190    -1.0670 cp         1 UNL      -0.041500
      7 C6          -0.2090     0.7830    -1.0800 cp         1 UNL      -0.050000
      8 C7          -0.3770     0.0910    -2.2880 ca         1 UNL      -0.060500
      9 C8          -0.6880    -1.2740    -2.2980 ca         1 UNL      -0.135600
     10 C9          -0.8530    -1.9440    -3.6110 c          1 UNL       0.651700
     11 O2          -0.7780    -1.4050    -4.7000 o          1 UNL      -0.552000
     12 O3          -1.1030    -3.2600    -3.5000 oh         1 UNL      -0.607100
     13 C10         -0.8350    -1.9660    -1.0900 ca         1 UNL      -0.060500
     14 C11         -0.6760    -1.3070     0.1390 cp         1 UNL      -0.050000
     15 C12         -0.8340    -2.0300     1.4120 cp         1 UNL      -0.041500
     16 C13         -1.7070    -1.5610     2.4070 ca         1 UNL      -0.115750
     17 C14         -1.8590    -2.2460     3.6170 ca         1 UNL      -0.121000
     18 C15         -1.1310    -3.4140     3.8670 ca         1 UNL      -0.124300
     19 C16         -1.3170    -4.1700     5.1550 c3         1 UNL       0.170700
     20 O4          -2.3610    -5.1250     5.0290 oh         1 UNL      -0.594300
     21 C17         -0.2670    -3.8970     2.8780 ca         1 UNL      -0.121000
     22 C18         -0.1190    -3.2110     1.6690 ca         1 UNL      -0.115750
     23 C19         -0.3630     0.0650     0.1200 ca         1 UNL      -0.077000
     24 C20          1.2140     2.7040    -0.3320 ca         1 UNL      -0.115750
     25 C21          1.5290     4.0670    -0.3180 ca         1 UNL      -0.121000
     26 H1           2.2030     5.8970    -2.5690 ho         1 UNL       0.402000
     27 H2           0.2200     7.0620    -1.2120 h1         1 UNL       0.056450
     28 H3           1.5410     6.7460    -0.0870 h1         1 UNL       0.056450
     29 H4          -0.9450     5.1980    -2.3600 ha         1 UNL       0.141500
     30 H5          -1.5030     2.8110    -2.3730 ha         1 UNL       0.138500
     31 H6          -0.2530     0.6160    -3.2350 ha         1 UNL       0.161000
     32 H7          -1.1860    -3.5630    -4.4290 ho         1 UNL       0.448000
     33 H8          -1.0890    -3.0240    -1.1010 ha         1 UNL       0.161000
     34 H9          -2.2920    -0.6590     2.2400 ha         1 UNL       0.138500
     35 H10         -2.5530    -1.8610     4.3620 ha         1 UNL       0.141500
     36 H11         -0.3970    -4.6930     5.4360 h1         1 UNL       0.056450
     37 H12         -1.5660    -3.4870     5.9740 h1         1 UNL       0.056450
     38 H13         -2.7210    -5.0570     4.1280 ho         1 UNL       0.402000
     39 H14          0.2980    -4.8120     3.0430 ha         1 UNL       0.141500
     40 H15          0.5720    -3.6040     0.9260 ha         1 UNL       0.138500
     41 H16         -0.2370     0.5890     1.0680 ha         1 UNL       0.145000
     42 H17          1.8440     2.0170     0.2300 ha         1 UNL       0.138500
     43 H18          2.3900     4.4080     0.2530 ha         1 UNL       0.141500
@<TRIPOS>BOND
     1     1     2 1   
     2     1    26 1   
     3     2     3 1   
     4     2    27 1   
     5     2    28 1   
     6     3     4 ar  
     7     3    25 ar  
     8     4     5 ar  
     9     4    29 1   
    10     5     6 ar  
    11     5    30 1   
    12     6     7 1   
    13     6    24 ar  
    14     7     8 ar  
    15     7    23 ar  
    16     8     9 ar  
    17     8    31 1   
    18     9    10 1   
    19     9    13 ar  
    20    10    11 2   
    21    10    12 1   
    22    12    32 1   
    23    13    14 ar  
    24    13    33 1   
    25    14    15 1   
    26    14    23 ar  
    27    15    16 ar  
    28    15    22 ar  
    29    16    17 ar  
    30    16    34 1   
    31    17    18 ar  
    32    17    35 1   
    33    18    19 1   
    34    18    21 ar  
    35    19    20 1   
    36    19    36 1   
    37    19    37 1   
    38    20    38 1   
    39    21    22 ar  
    40    21    39 1   
    41    22    40 1   
    42    23    41 1   
    43    24    25 ar  
    44    24    42 1   
    45    25    43 1   
@<TRIPOS>SUBSTRUCTURE
     1 UNL         1 TEMP              0 ****  ****    0 ROOT
