@<TRIPOS>MOLECULE
UNL
   31    30     1     0     0
SMALL
bcc


@<TRIPOS>ATOM
      1 O1           3.7580    -5.7730    -0.7790 oh         1 UNL      -0.588800
      2 C1           3.0570    -4.9050     0.1040 c3         1 UNL       0.093400
      3 C2           3.3020    -3.4400    -0.2510 c3         1 UNL       0.092400
      4 O2           2.6720    -2.5360     0.6530 os         1 UNL      -0.414600
      5 C3           1.2560    -2.4350     0.4740 c3         1 UNL       0.093400
      6 C4           0.7170    -1.2770     1.3200 c3         1 UNL       0.122400
      7 O3           1.0850    -0.0050     0.7740 os         1 UNL      -0.414600
      8 C5           0.2000     0.4670    -0.2410 c3         1 UNL       0.122400
      9 C6          -0.9440     1.2830     0.3580 c3         1 UNL       0.095400
     10 O4          -1.8310     1.6810    -0.6880 os         1 UNL      -0.421600
     11 C7          -2.8930     2.5090    -0.2200 c3         1 UNL       0.158600
     12 C8          -2.4340     3.9340    -0.1810 c2         1 UNL      -0.204200
     13 C9          -2.4910     4.7230     0.8990 c2         1 UNL      -0.213000
     14 H1           3.4240    -5.6150    -1.6780 ho         1 UNL       0.396000
     15 H2           3.3900    -5.1070     1.1270 h1         1 UNL       0.053700
     16 H3           1.9930    -5.1570     0.0590 h1         1 UNL       0.053700
     17 H4           2.9970    -3.2280    -1.2830 h1         1 UNL       0.054200
     18 H5           4.3790    -3.2430    -0.2120 h1         1 UNL       0.054200
     19 H6           0.7910    -3.3670     0.8100 h1         1 UNL       0.035700
     20 H7           1.0330    -2.2780    -0.5860 h1         1 UNL       0.035700
     21 H8           1.1540    -1.3240     2.3230 h1         1 UNL       0.062200
     22 H9          -0.3710    -1.3460     1.4210 h1         1 UNL       0.062200
     23 H10          0.7810     1.1110    -0.9120 h1         1 UNL       0.060700
     24 H11         -0.1820    -0.3520    -0.8600 h1         1 UNL       0.060700
     25 H12         -1.4920     0.6870     1.0950 h1         1 UNL       0.037700
     26 H13         -0.5340     2.1580     0.8760 h1         1 UNL       0.037700
     27 H14         -3.7090     2.4290    -0.9460 h1         1 UNL       0.056700
     28 H15         -3.2740     2.1540     0.7440 h1         1 UNL       0.056700
     29 H16         -2.0310     4.3310    -1.1090 ha         1 UNL       0.135000
     30 H17         -2.1370     5.7490     0.8540 ha         1 UNL       0.113500
     31 H18         -2.8840     4.3700     1.8470 ha         1 UNL       0.113500
@<TRIPOS>BOND
     1     1     2 1   
     2     1    14 1   
     3     2     3 1   
     4     2    15 1   
     5     2    16 1   
     6     3     4 1   
     7     3    17 1   
     8     3    18 1   
     9     4     5 1   
    10     5     6 1   
    11     5    19 1   
    12     5    20 1   
    13     6     7 1   
    14     6    21 1   
    15     6    22 1   
    16     7     8 1   
    17     8     9 1   
    18     8    23 1   
    19     8    24 1   
    20     9    10 1   
    21     9    25 1   
    22     9    26 1   
    23    10    11 1   
    24    11    12 1   
    25    11    27 1   
    26    11    28 1   
    27    12    13 2   
    28    12    29 1   
    29    13    30 1   
    30    13    31 1   
@<TRIPOS>SUBSTRUCTURE
     1 UNL         1 TEMP              0 ****  ****    0 ROOT
