@<TRIPOS>MOLECULE
UNL
   31    30     1     0     0
SMALL
bcc


@<TRIPOS>ATOM
      1 O1           1.3040    -0.5110    -3.7220 oh         1 UNL      -0.604800
      2 C1           0.2190    -1.0930    -4.4430 c3         1 UNL       0.130400
      3 C2          -0.9960    -1.2220    -3.5310 c3         1 UNL       0.086400
      4 O2          -0.6360    -2.0680    -2.4300 os         1 UNL      -0.441600
      5 C3          -1.7470    -2.2750    -1.5470 c3         1 UNL       0.096400
      6 C4          -1.3060    -3.1220    -0.3510 c3         1 UNL       0.130400
      7 O3          -0.7630    -2.3410     0.7180 os         1 UNL      -0.425600
      8 C5           0.5210    -1.7790     0.4250 c3         1 UNL       0.121400
      9 C6           1.0660    -1.0930     1.6780 c3         1 UNL       0.123400
     10 O4           0.3890     0.1530     1.8710 os         1 UNL      -0.427600
     11 C7           0.7990     0.7930     3.0740 c3         1 UNL       0.165600
     12 C8           0.1200     2.1230     3.2320 c2         1 UNL      -0.195200
     13 C9          -0.7640     2.6740     2.3880 c2         1 UNL      -0.185000
     14 H1           1.3260    -0.9850    -2.8690 ho         1 UNL       0.418000
     15 H2           0.5470    -2.0760    -4.7950 h1         1 UNL       0.052700
     16 H3          -0.0040    -0.4590    -5.3060 h1         1 UNL       0.052700
     17 H4          -1.8360    -1.6610    -4.0800 h1         1 UNL       0.041200
     18 H5          -1.2780    -0.2390    -3.1390 h1         1 UNL       0.041200
     19 H6          -2.1360    -1.3080    -1.2100 h1         1 UNL       0.042200
     20 H7          -2.5240    -2.8120    -2.1030 h1         1 UNL       0.042200
     21 H8          -2.1870    -3.6200     0.0670 h1         1 UNL       0.059200
     22 H9          -0.5870    -3.8960    -0.6430 h1         1 UNL       0.059200
     23 H10          0.4260    -1.0450    -0.3810 h1         1 UNL       0.051700
     24 H11          1.2010    -2.5830     0.1240 h1         1 UNL       0.051700
     25 H12          0.9140    -1.7310     2.5560 h1         1 UNL       0.041700
     26 H13          2.1350    -0.8920     1.5480 h1         1 UNL       0.041700
     27 H14          0.5440     0.1590     3.9310 h1         1 UNL       0.032200
     28 H15          1.8840     0.9490     3.0570 h1         1 UNL       0.032200
     29 H16          0.3880     2.6760     4.1290 ha         1 UNL       0.119000
     30 H17         -1.2020     3.6450     2.5920 ha         1 UNL       0.123500
     31 H18         -1.0690     2.1640     1.4790 ha         1 UNL       0.123500
@<TRIPOS>BOND
     1     1     2 1   
     2     1    14 1   
     3     2     3 1   
     4     2    15 1   
     5     2    16 1   
     6     3     4 1   
     7     3    17 1   
     8     3    18 1   
     9     4     5 1   
    10     5     6 1   
    11     5    19 1   
    12     5    20 1   
    13     6     7 1   
    14     6    21 1   
    15     6    22 1   
    16     7     8 1   
    17     8     9 1   
    18     8    23 1   
    19     8    24 1   
    20     9    10 1   
    21     9    25 1   
    22     9    26 1   
    23    10    11 1   
    24    11    12 1   
    25    11    27 1   
    26    11    28 1   
    27    12    13 2   
    28    12    29 1   
    29    13    30 1   
    30    13    31 1   
@<TRIPOS>SUBSTRUCTURE
     1 UNL         1 TEMP              0 ****  ****    0 ROOT
