@<TRIPOS>MOLECULE
UNL
   31    30     1     0     0
SMALL
bcc


@<TRIPOS>ATOM
      1 O1           0.4110    -1.4740    -2.8550 oh         1 UNL      -0.603800
      2 C1           0.9520    -0.1850    -3.1210 c3         1 UNL       0.112400
      3 C2           0.3850     0.8560    -2.1540 c3         1 UNL       0.085400
      4 O2           0.5460     0.4700    -0.7880 os         1 UNL      -0.415600
      5 C3           1.6470     1.0660    -0.1050 c3         1 UNL       0.096400
      6 C4           3.0180     0.5790    -0.5730 c3         1 UNL       0.092400
      7 O3           3.1050    -0.8310    -0.7680 os         1 UNL      -0.408600
      8 C5           3.0940    -1.6260     0.4170 c3         1 UNL       0.123400
      9 C6           1.7110    -2.2000     0.7470 c3         1 UNL       0.087400
     10 O4           1.2020    -2.9280    -0.3760 os         1 UNL      -0.417600
     11 C7           0.0300    -3.6820    -0.0680 c3         1 UNL       0.156600
     12 C8          -1.1590    -2.7820     0.0740 c2         1 UNL      -0.199200
     13 C9          -1.9630    -2.7420     1.1440 c2         1 UNL      -0.223000
     14 H1           0.7670    -1.7300    -1.9740 ho         1 UNL       0.434000
     15 H2           0.6930     0.0850    -4.1500 h1         1 UNL       0.044700
     16 H3           2.0400    -0.2560    -3.0630 h1         1 UNL       0.044700
     17 H4           0.8100     1.8480    -2.3440 h1         1 UNL       0.050700
     18 H5          -0.6960     0.9220    -2.3170 h1         1 UNL       0.050700
     19 H6           1.5810     2.1580    -0.1710 h1         1 UNL       0.049200
     20 H7           1.5240     0.8150     0.9540 h1         1 UNL       0.049200
     21 H8           3.8040     0.9120     0.1140 h1         1 UNL       0.050700
     22 H9           3.2420     1.0350    -1.5430 h1         1 UNL       0.050700
     23 H10          3.7700    -2.4650     0.2160 h1         1 UNL       0.058700
     24 H11          3.5020    -1.0720     1.2690 h1         1 UNL       0.058700
     25 H12          1.0120    -1.4010     1.0020 h1         1 UNL       0.044700
     26 H13          1.8060    -2.8680     1.6100 h1         1 UNL       0.044700
     27 H14         -0.1460    -4.3590    -0.9100 h1         1 UNL       0.054200
     28 H15          0.2010    -4.3030     0.8200 h1         1 UNL       0.054200
     29 H16         -1.3620    -2.1220    -0.7680 ha         1 UNL       0.157000
     30 H17         -2.8060    -2.0590     1.1730 ha         1 UNL       0.109500
     31 H18         -1.8020    -3.3810     2.0060 ha         1 UNL       0.109500
@<TRIPOS>BOND
     1     1     2 1   
     2     1    14 1   
     3     2     3 1   
     4     2    15 1   
     5     2    16 1   
     6     3     4 1   
     7     3    17 1   
     8     3    18 1   
     9     4     5 1   
    10     5     6 1   
    11     5    19 1   
    12     5    20 1   
    13     6     7 1   
    14     6    21 1   
    15     6    22 1   
    16     7     8 1   
    17     8     9 1   
    18     8    23 1   
    19     8    24 1   
    20     9    10 1   
    21     9    25 1   
    22     9    26 1   
    23    10    11 1   
    24    11    12 1   
    25    11    27 1   
    26    11    28 1   
    27    12    13 2   
    28    12    29 1   
    29    13    30 1   
    30    13    31 1   
@<TRIPOS>SUBSTRUCTURE
     1 UNL         1 TEMP              0 ****  ****    0 ROOT
