@<TRIPOS>MOLECULE
UNL
   31    30     1     0     0
SMALL
bcc


@<TRIPOS>ATOM
      1 O1          -4.2210    -1.5740    -2.6190 oh         1 UNL      -0.600800
      2 C1          -3.5850    -0.4690    -3.2600 c3         1 UNL       0.132400
      3 C2          -3.3430     0.6420    -2.2440 c3         1 UNL       0.086400
      4 O2          -2.4950     0.1150    -1.2180 os         1 UNL      -0.436600
      5 C3          -2.2480     1.0810    -0.1890 c3         1 UNL       0.128400
      6 C4          -1.4020     0.4450     0.9150 c3         1 UNL       0.120400
      7 O3          -2.2150    -0.4700     1.6590 os         1 UNL      -0.425600
      8 C5          -1.5820    -0.9610     2.8460 c3         1 UNL       0.129400
      9 C6          -0.4020    -1.8920     2.5580 c3         1 UNL       0.093400
     10 O4           0.7790    -1.1130     2.3370 os         1 UNL      -0.431600
     11 C7           1.8860    -1.9330     1.9770 c3         1 UNL       0.157600
     12 C8           3.0620    -1.0310     1.7840 c2         1 UNL      -0.164200
     13 C9           3.7900    -0.9550     0.6620 c2         1 UNL      -0.224000
     14 H1          -3.7320    -1.6960    -1.7800 ho         1 UNL       0.414000
     15 H2          -2.6390    -0.8300    -3.6760 h1         1 UNL       0.051700
     16 H3          -4.2260    -0.1240    -4.0750 h1         1 UNL       0.051700
     17 H4          -4.2940     0.9510    -1.7960 h1         1 UNL       0.038700
     18 H5          -2.8590     1.4990    -2.7230 h1         1 UNL       0.038700
     19 H6          -3.2040     1.4250     0.2210 h1         1 UNL       0.042200
     20 H7          -1.7070     1.9270    -0.6260 h1         1 UNL       0.042200
     21 H8          -1.0300     1.2280     1.5850 h1         1 UNL       0.053700
     22 H9          -0.5650    -0.0960     0.4640 h1         1 UNL       0.053700
     23 H10         -2.3510    -1.5280     3.3800 h1         1 UNL       0.060700
     24 H11         -1.2870    -0.1150     3.4780 h1         1 UNL       0.060700
     25 H12         -0.6100    -2.5080     1.6760 h1         1 UNL       0.041200
     26 H13         -0.2270    -2.5360     3.4270 h1         1 UNL       0.041200
     27 H14          1.6550    -2.4910     1.0630 h1         1 UNL       0.037700
     28 H15          2.1000    -2.6410     2.7860 h1         1 UNL       0.037700
     29 H16          3.3220    -0.3960     2.6280 ha         1 UNL       0.141000
     30 H17          4.6300    -0.2700     0.5920 ha         1 UNL       0.114000
     31 H18          3.5640    -1.5630    -0.2080 ha         1 UNL       0.114000
@<TRIPOS>BOND
     1     1     2 1   
     2     1    14 1   
     3     2     3 1   
     4     2    15 1   
     5     2    16 1   
     6     3     4 1   
     7     3    17 1   
     8     3    18 1   
     9     4     5 1   
    10     5     6 1   
    11     5    19 1   
    12     5    20 1   
    13     6     7 1   
    14     6    21 1   
    15     6    22 1   
    16     7     8 1   
    17     8     9 1   
    18     8    23 1   
    19     8    24 1   
    20     9    10 1   
    21     9    25 1   
    22     9    26 1   
    23    10    11 1   
    24    11    12 1   
    25    11    27 1   
    26    11    28 1   
    27    12    13 2   
    28    12    29 1   
    29    13    30 1   
    30    13    31 1   
@<TRIPOS>SUBSTRUCTURE
     1 UNL         1 TEMP              0 ****  ****    0 ROOT
