@<TRIPOS>MOLECULE
UNL
   31    30     1     0     0
SMALL
bcc


@<TRIPOS>ATOM
      1 O1           1.4950    -1.3360     3.1280 oh         1 UNL      -0.593800
      2 C1           2.4320    -1.4810     2.0670 c3         1 UNL       0.125400
      3 C2           1.7260    -1.7460     0.7400 c3         1 UNL       0.085400
      4 O2           2.7000    -1.8270    -0.2980 os         1 UNL      -0.420600
      5 C3           2.1720    -2.3220    -1.5350 c3         1 UNL       0.129400
      6 C4           1.2950    -1.3000    -2.2600 c3         1 UNL       0.094400
      7 O3          -0.0280    -1.3160    -1.7110 os         1 UNL      -0.431600
      8 C5          -0.8750    -0.3630    -2.3540 c3         1 UNL       0.098400
      9 C6          -2.2790    -0.4540    -1.7590 c3         1 UNL       0.122400
     10 O4          -3.1620     0.4910    -2.3620 os         1 UNL      -0.413600
     11 C7          -3.1170     1.7840    -1.7630 c3         1 UNL       0.151600
     12 C8          -4.1930     1.8770    -0.7260 c2         1 UNL      -0.203200
     13 C9          -5.1760     2.7870    -0.7290 c2         1 UNL      -0.214000
     14 H1           0.9790    -0.5310     2.9490 ho         1 UNL       0.397000
     15 H2           3.1050    -2.3100     2.3100 h1         1 UNL       0.056200
     16 H3           3.0480    -0.5770     2.0100 h1         1 UNL       0.056200
     17 H4           1.1500    -2.6760     0.8100 h1         1 UNL       0.043200
     18 H5           1.0280    -0.9270     0.5380 h1         1 UNL       0.043200
     19 H6           3.0420    -2.5410    -2.1620 h1         1 UNL       0.062200
     20 H7           1.6390    -3.2630    -1.3590 h1         1 UNL       0.062200
     21 H8           1.7190    -0.2940    -2.1580 h1         1 UNL       0.040200
     22 H9           1.2300    -1.5680    -3.3210 h1         1 UNL       0.040200
     23 H10         -0.9180    -0.5620    -3.4310 h1         1 UNL       0.034700
     24 H11         -0.4650     0.6440    -2.2180 h1         1 UNL       0.034700
     25 H12         -2.2580    -0.3450    -0.6680 h1         1 UNL       0.061700
     26 H13         -2.6820    -1.4540    -1.9570 h1         1 UNL       0.061700
     27 H14         -3.2840     2.5150    -2.5610 h1         1 UNL       0.056200
     28 H15         -2.1380     1.9950    -1.3210 h1         1 UNL       0.056200
     29 H16         -4.1600     1.1450     0.0780 ha         1 UNL       0.136000
     30 H17         -5.9290     2.7930     0.0540 ha         1 UNL       0.114000
     31 H18         -5.2610     3.5340    -1.5110 ha         1 UNL       0.114000
@<TRIPOS>BOND
     1     1     2 1   
     2     1    14 1   
     3     2     3 1   
     4     2    15 1   
     5     2    16 1   
     6     3     4 1   
     7     3    17 1   
     8     3    18 1   
     9     4     5 1   
    10     5     6 1   
    11     5    19 1   
    12     5    20 1   
    13     6     7 1   
    14     6    21 1   
    15     6    22 1   
    16     7     8 1   
    17     8     9 1   
    18     8    23 1   
    19     8    24 1   
    20     9    10 1   
    21     9    25 1   
    22     9    26 1   
    23    10    11 1   
    24    11    12 1   
    25    11    27 1   
    26    11    28 1   
    27    12    13 2   
    28    12    29 1   
    29    13    30 1   
    30    13    31 1   
@<TRIPOS>SUBSTRUCTURE
     1 UNL         1 TEMP              0 ****  ****    0 ROOT
