@<TRIPOS>MOLECULE
UNL
   54    59     1     0     0
SMALL
bcc


@<TRIPOS>ATOM
      1 C1          -9.2150     0.4040    -0.4110 c3         1 UNL       0.113700
      2 O1          -8.3570     0.5710     0.7100 os         1 UNL      -0.326900
      3 C2          -7.0550     0.1820     0.5560 ca         1 UNL       0.127100
      4 C3          -6.2540     0.3630     1.6850 ca         1 UNL      -0.182500
      5 C4          -4.9020     0.0080     1.6640 ca         1 UNL      -0.085000
      6 C5          -4.3260    -0.5330     0.5080 cp         1 UNL      -0.079000
      7 C6          -2.9040    -0.9100     0.4800 cp         1 UNL      -0.018000
      8 C7          -2.5610    -2.2190     0.8560 ca         1 UNL      -0.119000
      9 C8          -1.2350    -2.6410     0.8500 ca         1 UNL      -0.116000
     10 C9          -0.2140    -1.7660     0.4680 ca         1 UNL      -0.033000
     11 C10          1.1150    -2.1930     0.4630 ca         1 UNL      -0.118000
     12 C11          2.1390    -1.3260     0.0830 ca         1 UNL      -0.115000
     13 C12          1.8780     0.0040    -0.3060 ca         1 UNL      -0.020000
     14 C13          2.9040     0.9100    -0.6970 cp         1 UNL      -0.018000
     15 C14          4.3260     0.5330    -0.7240 cp         1 UNL      -0.079000
     16 C15          5.1370     0.7130     0.4060 ca         1 UNL      -0.085000
     17 C16          6.4910     0.3570     0.3850 ca         1 UNL      -0.182500
     18 C17          7.0560    -0.1810    -0.7710 ca         1 UNL       0.127100
     19 O2           8.3580    -0.5690    -0.9260 os         1 UNL      -0.326900
     20 C18          9.2150    -0.4050     0.1960 c3         1 UNL       0.113700
     21 C19          6.2550    -0.3600    -1.9010 ca         1 UNL      -0.182500
     22 C20          4.9030    -0.0060    -1.8810 ca         1 UNL      -0.085000
     23 C21          2.5610     2.2180    -1.0720 ca         1 UNL      -0.119000
     24 C22          1.2350     2.6410    -1.0660 ca         1 UNL      -0.116000
     25 C23          0.2140     1.7660    -0.6850 ca         1 UNL      -0.033000
     26 C24         -1.1150     2.1930    -0.6790 ca         1 UNL      -0.118000
     27 C25         -2.1390     1.3250    -0.3000 ca         1 UNL      -0.115000
     28 C26         -1.8780    -0.0040     0.0900 ca         1 UNL      -0.020000
     29 C27         -0.5260    -0.4410     0.0850 ca         1 UNL      -0.016000
     30 C28          0.5260     0.4410    -0.3010 ca         1 UNL      -0.016000
     31 C29         -5.1380    -0.7150    -0.6210 ca         1 UNL      -0.085000
     32 C30         -6.4920    -0.3590    -0.5990 ca         1 UNL      -0.182500
     33 H1          -9.3040    -0.6520    -0.6870 h1         1 UNL       0.044700
     34 H2         -10.2110     0.7580    -0.1260 h1         1 UNL       0.044700
     35 H3          -8.8780     1.0090    -1.2600 h1         1 UNL       0.044700
     36 H4          -6.6850     0.7840     2.5900 ha         1 UNL       0.144500
     37 H5          -4.2980     0.1590     2.5570 ha         1 UNL       0.140500
     38 H6          -3.3380    -2.9190     1.1570 ha         1 UNL       0.137000
     39 H7          -1.0090    -3.6630     1.1470 ha         1 UNL       0.135000
     40 H8           1.3730    -3.2090     0.7540 ha         1 UNL       0.134000
     41 H9           3.1580    -1.7090     0.0960 ha         1 UNL       0.143000
     42 H10          4.7120     1.1310     1.3170 ha         1 UNL       0.140500
     43 H11          7.0720     0.5150     1.2870 ha         1 UNL       0.144500
     44 H12          9.3030     0.6510     0.4750 h1         1 UNL       0.044700
     45 H13          8.8780    -1.0110     1.0430 h1         1 UNL       0.044700
     46 H14         10.2110    -0.7570    -0.0890 h1         1 UNL       0.044700
     47 H15          6.6870    -0.7790    -2.8070 ha         1 UNL       0.144500
     48 H16          4.3000    -0.1560    -2.7740 ha         1 UNL       0.140500
     49 H17          3.3380     2.9190    -1.3730 ha         1 UNL       0.137000
     50 H18          1.0090     3.6630    -1.3630 ha         1 UNL       0.135000
     51 H19         -1.3730     3.2090    -0.9700 ha         1 UNL       0.134000
     52 H20         -3.1580     1.7090    -0.3120 ha         1 UNL       0.143000
     53 H21         -4.7130    -1.1350    -1.5310 ha         1 UNL       0.140500
     54 H22         -7.0740    -0.5190    -1.5010 ha         1 UNL       0.144500
@<TRIPOS>BOND
     1     1     2 1   
     2     1    33 1   
     3     1    34 1   
     4     1    35 1   
     5     2     3 1   
     6     3     4 ar  
     7     3    32 ar  
     8     4     5 ar  
     9     4    36 1   
    10     5     6 ar  
    11     5    37 1   
    12     6     7 1   
    13     6    31 ar  
    14     7     8 ar  
    15     7    28 ar  
    16     8     9 ar  
    17     8    38 1   
    18     9    10 ar  
    19     9    39 1   
    20    10    11 ar  
    21    10    29 ar  
    22    11    12 ar  
    23    11    40 1   
    24    12    13 ar  
    25    12    41 1   
    26    13    14 ar  
    27    13    30 ar  
    28    14    15 1   
    29    14    23 ar  
    30    15    16 ar  
    31    15    22 ar  
    32    16    17 ar  
    33    16    42 1   
    34    17    18 ar  
    35    17    43 1   
    36    18    19 1   
    37    18    21 ar  
    38    19    20 1   
    39    20    44 1   
    40    20    45 1   
    41    20    46 1   
    42    21    22 ar  
    43    21    47 1   
    44    22    48 1   
    45    23    24 ar  
    46    23    49 1   
    47    24    25 ar  
    48    24    50 1   
    49    25    26 ar  
    50    25    30 ar  
    51    26    27 ar  
    52    26    51 1   
    53    27    28 ar  
    54    27    52 1   
    55    28    29 ar  
    56    29    30 ar  
    57    31    32 ar  
    58    31    53 1   
    59    32    54 1   
@<TRIPOS>SUBSTRUCTURE
     1 UNL         1 TEMP              0 ****  ****    0 ROOT
